1

   Abaqus 2020                                  Date 16-Sep-2024   Time 00:13:33
   For use by Supplied by Team-SolidSQUAD under license from Dassault Systemes or its subsidiary.

                                                                                 
                                                                                 
 STEP    1     INCREMENT     1     STEP TIME    0.00    


                        S T E P       1     S T A T I C   A N A L Y S I S


                                                                                          

     AUTOMATIC TIME CONTROL WITH -
          A SUGGESTED INITIAL TIME INCREMENT OF                1.000E-02
          AND A TOTAL TIME PERIOD OF                            60.0    
          THE MINIMUM TIME INCREMENT ALLOWED IS                1.000E-15
          THE MAXIMUM TIME INCREMENT ALLOWED IS                0.100    

     LINEAR EQUATION SOLVER TYPE         DIRECT SPARSE

     AUTOMATIC STABILIZATION WITH DAMPING FACTOR =  2.000E-04

 CONVERGENCE TOLERANCE PARAMETERS FOR FORCE    
     CRITERION FOR RESIDUAL FORCE     FOR A NONLINEAR PROBLEM          5.000E-03
     CRITERION FOR DISP.    CORRECTION IN A NONLINEAR PROBLEM          1.000E-02
     INITIAL VALUE OF TIME AVERAGE FORCE                               1.000E-02
     AVERAGE FORCE     IS TIME AVERAGE FORCE    
     ALTERNATE CRIT. FOR RESIDUAL FORCE     FOR A NONLINEAR PROBLEM    2.000E-02
     CRITERION FOR ZERO FORCE     RELATIVE TO TIME AVRG. FORCE         1.000E-05
     CRITERION FOR RESIDUAL FORCE     WHEN THERE IS ZERO FLUX          1.000E-05
     CRITERION FOR DISP.    CORRECTION WHEN THERE IS ZERO FLUX         1.000E-03
     CRITERION FOR RESIDUAL FORCE     FOR A LINEAR INCREMENT           1.000E-08
     FIELD CONVERSION RATIO                                             1.00    
     CRITERION FOR ZERO FORCE     REL. TO TIME AVRG. MAX. FORCE        1.000E-05
     CRITERION FOR ZERO DISP.    RELATIVE TO CHARACTERISTIC LENGTH     1.000E-08

 CONVERGENCE TOLERANCE PARAMETERS FOR MOMENT   
     CRITERION FOR RESIDUAL MOMENT    FOR A NONLINEAR PROBLEM          5.000E-03
     CRITERION FOR ROTATION CORRECTION IN A NONLINEAR PROBLEM          1.000E-02
     INITIAL VALUE OF TIME AVERAGE MOMENT                              1.000E-02
     AVERAGE MOMENT    IS TIME AVERAGE MOMENT   
     ALTERNATE CRIT. FOR RESIDUAL MOMENT    FOR A NONLINEAR PROBLEM    2.000E-02
     CRITERION FOR ZERO MOMENT    RELATIVE TO TIME AVRG. MOMENT        1.000E-05
     CRITERION FOR RESIDUAL MOMENT    WHEN THERE IS ZERO FLUX          1.000E-05
     CRITERION FOR ROTATION CORRECTION WHEN THERE IS ZERO FLUX         1.000E-03
     CRITERION FOR RESIDUAL MOMENT    FOR A LINEAR INCREMENT           1.000E-08
     FIELD CONVERSION RATIO                                             1.00    
     CRITERION FOR ZERO MOMENT    REL. TO TIME AVRG. MAX. MOMENT       1.000E-05

     VOLUMETRIC STRAIN COMPATIBILITY TOLERANCE FOR HYBRID SOLIDS       1.000E-05
     AXIAL STRAIN COMPATIBILITY TOLERANCE FOR HYBRID BEAMS             1.000E-05
     TRANS. SHEAR STRAIN COMPATIBILITY TOLERANCE FOR HYBRID BEAMS      1.000E-05
     SOFT CONTACT CONSTRAINT COMPATIBILITY TOLERANCE FOR P>P0          5.000E-03
     SOFT CONTACT CONSTRAINT COMPATIBILITY TOLERANCE FOR P=0.0         0.100    
     CONTACT FORCE ERROR TOLERANCE FOR CONVERT SDI=YES                 1.00    
     DISPLACEMENT COMPATIBILITY TOLERANCE FOR DCOUP ELEMENTS           1.000E-05
     ROTATION COMPATIBILITY TOLERANCE FOR DCOUP ELEMENTS               1.000E-05

 EQUILIBRIUM WILL BE CHECKED FOR SEVERE DISCONTINUITY ITERATIONS

 TIME INCREMENTATION CONTROL PARAMETERS:
 *** FIRST EQUILIBRIUM ITERATION FOR CONSECUTIVE DIVERGENCE CHECK              8
 *** EQUILIBRIUM ITERATION AT WHICH LOG. CONVERGENCE RATE CHECK BEGINS        10
     EQUILIBRIUM ITERATION AFTER WHICH ALTERNATE RESIDUAL IS USED              9
     MAXIMUM EQUILIBRIUM ITERATIONS ALLOWED                                   16
     EQUILIBRIUM ITERATION COUNT FOR CUT-BACK IN NEXT INCREMENT               10
     MAXIMUM EQUILIB. ITERS IN TWO INCREMENTS FOR TIME INCREMENT INCREASE      4
     MAXIMUM ITERATIONS FOR SEVERE DISCONTINUITIES                            50
 *** MAXIMUM ATTEMPTS ALLOWED IN AN INCREMENT                                 30
     MAXIMUM DISCON. ITERS IN TWO INCREMENTS FOR TIME INCREMENT INCREASE      50
     MAXIMUM CONTACT AUGMENTATIONS FOR *SURFACE BEHAVIOR,AUGMENTED LAGRANGE   50
     CUT-BACK FACTOR AFTER DIVERGENCE                                 0.2500    
     CUT-BACK FACTOR FOR TOO SLOW CONVERGENCE                         0.5000    
     CUT-BACK FACTOR AFTER TOO MANY EQUILIBRIUM ITERATIONS            0.7500    
     CUT-BACK FACTOR AFTER TOO MANY SEVERE DISCONTINUITY ITERATIONS   0.2500    
     CUT-BACK FACTOR AFTER PROBLEMS IN ELEMENT ASSEMBLY               0.2500    
     INCREASE FACTOR AFTER TWO INCREMENTS THAT CONVERGE QUICKLY        1.500    
     MAX. TIME INCREMENT INCREASE FACTOR ALLOWED                       1.500    
     MAX. TIME INCREMENT INCREASE FACTOR ALLOWED (DYNAMICS)            1.250    
     MAX. TIME INCREMENT INCREASE FACTOR ALLOWED (DIFFUSION)           2.000    
     MINIMUM TIME INCREMENT RATIO FOR EXTRAPOLATION TO OCCUR          0.1000    
     MAX. RATIO OF TIME INCREMENT TO STABILITY LIMIT                   1.000    
     FRACTION OF STABILITY LIMIT FOR NEW TIME INCREMENT               0.9500    
     TIME INCREMENT INCREASE FACTOR BEFORE A TIME POINT                1.000    

 *** INDICATES USE OF NON-DEFAULT TIME INCREMENTATION CONTROL PARAMETER
     SELECTED WITH *CONTROLS

 CONTACT CONTROLS APPLIED TO ALL CONTACT PAIRS:
     GLOBAL STABILIZATION CONTROL IS NOT USED
     RELATIVE PENETRATION TOLERANCE FOR AUGMENTED LAGRANGE CONTACT:
          FINITE-SLIDING SURFACE-TO-SURFACE                            5.000E-02
          OTHERWISE                                                    1.000E-03

          PRINT OF INCREMENT NUMBER, TIME, ETC., EVERY    1  INCREMENTS

     THE MAXIMUM NUMBER OF INCREMENTS IN THIS STEP IS                     100

          LARGE DISPLACEMENT THEORY WILL BE USED

     LINEAR EXTRAPOLATION WILL BE USED

     CHARACTERISTIC ELEMENT LENGTH      1.46    

     DETAILS REGARDING ACTUAL SOLUTION WAVEFRONT REQUESTED

     DETAILED OUTPUT OF DIAGNOSTICS TO DATABASE REQUESTED

     PRINT OF INCREMENT NUMBER, TIME, ETC., TO THE MESSAGE FILE EVERY     1  INCREMENTS

     ELEMENT OPERATIONS WILL BE CARRIED OUT IN PARALLEL USING   6 PROCESSORS

     PARALLEL CONTACT TRACKING ENABLED


     COLLECTING MODEL CONSTRAINT INFORMATION FOR OVERCONSTRAINT CHECKS

     COLLECTING STEP CONSTRAINT INFORMATION FOR OVERCONSTRAINT CHECKS
 
     GPU SOLVER ACCELERATION ENABLED



  INCREMENT     1 STARTS. ATTEMPT NUMBER  1, TIME INCREMENT  1.000E-02
  
     ASYNCHRONOUS TRACKING ELEMENT LOOP STARTED
  
 
     INITIAL ELEMENT LOAD BALANCE
            PROCESS    1   THREAD     NUMBER OF ELEMENTS
                              1            15872
                              2            21760
                              3            20848
                              4            22272
                              5            15763
                              6            19968

  NUMBER OF EQUATIONS =     55149     NUMBER OF RHS =    1
  NUMBER OF FLOATING PT. OPERATIONS =  1.37E+09

  USING THE DIRECT SOLVER WITH   6 PROCESSORS

     CHECK POINT   START OF SOLVER    

     CHECK POINT  END OF SOLVER       

       ELAPSED USER TIME (SEC)      =  0.50000    
       ELAPSED SYSTEM TIME (SEC)    =   0.0000    
       ELAPSED TOTAL CPU TIME (SEC) =  0.50000    
       ELAPSED WALLCLOCK TIME (SEC) =          1
  
     ASYNCHRONOUS TRACKING ELEMENT LOOP STARTED
  

                   71 SEVERE DISCONTINUITIES OCCURRED DURING THIS ITERATION.
                   15 POINTS CHANGED FROM OPEN TO CLOSED
                   14 POINTS CHANGED FROM CLOSED TO OPEN
                   42 POINTS CHANGED FROM STICKING TO SLIPPING

               CONVERGENCE CHECKS FOR SEVERE DISCONTINUITY ITERATION     1

   MAX. PENETRATION ERROR 73.3293E-03  AT NODE SUBSTRATE-1.392 OF CONTACT PAIR 
   (ASSEMBLY__PICKEDSURF127,ASSEMBLY__PICKEDSURF126)
   MAX. CONTACT FORCE ERROR 3.84884     AT NODE SCALE-1-LIN-6-1.213 OF CONTACT 
   PAIR (GENERAL_CONTACT_EDGES_16,GENERAL_CONTACT_FACES_01)
          PENETRATION ERROR TOO LARGE COMPARED TO DISPLACEMENT INCREMENT.

 AVERAGE FORCE                      4.914E-02   TIME AVG. FORCE       4.914E-02
 LARGEST RESIDUAL FORCE             -19.7       AT NODE       1100   DOF  2
   INSTANCE: SCALE-1                                                                         
 LARGEST INCREMENT OF DISP.         0.280       AT NODE        798   DOF  2
   INSTANCE: SCALE-1                                                                         
 LARGEST CORRECTION TO DISP.        0.280       AT NODE        798   DOF  2
   INSTANCE: SCALE-1                                                                         
          FORCE     EQUILIBRIUM NOT ACHIEVED WITHIN TOLERANCE.

 AVERAGE MOMENT                      0.00       TIME AVG. MOMENT      7.184E-02
                                                (FROM FORCE     FIELD)
 LARGEST RESIDUAL MOMENT            9.178E-06   AT NODE          3   DOF  5
   INSTANCE:                                                                                 
 LARGEST INCREMENT OF ROTATION     -6.075E-09   AT NODE          3   DOF  6
   INSTANCE: {assembly node}                                                                 
 LARGEST CORRECTION TO ROTATION    -6.075E-09   AT NODE          3   DOF  6
   INSTANCE: {assembly node}                                                                 
          ALL ROTATION CORRECTIONS ARE ZERO

  NUMBER OF EQUATIONS =     55149     NUMBER OF RHS =    1
  NUMBER OF FLOATING PT. OPERATIONS =  1.43E+09

  USING THE DIRECT SOLVER WITH   6 PROCESSORS

     CHECK POINT   START OF SOLVER    

     CHECK POINT  END OF SOLVER       

       ELAPSED USER TIME (SEC)      =  0.40000    
       ELAPSED SYSTEM TIME (SEC)    =   0.0000    
       ELAPSED TOTAL CPU TIME (SEC) =  0.40000    
       ELAPSED WALLCLOCK TIME (SEC) =          0
  
     ASYNCHRONOUS TRACKING ELEMENT LOOP STARTED
  

                   44 SEVERE DISCONTINUITIES OCCURRED DURING THIS ITERATION.
                   42 POINTS CHANGED FROM SLIPPING TO STICKING
                    2 POINTS CHANGED FROM STICKING TO SLIPPING

               CONVERGENCE CHECKS FOR SEVERE DISCONTINUITY ITERATION     2

   MAX. PENETRATION ERROR 2.37291E-03 AT NODE SUBSTRATE-1.176 OF CONTACT PAIR 
   (ASSEMBLY__PICKEDSURF127,ASSEMBLY__PICKEDSURF126)
   MAX. CONTACT FORCE ERROR -1.76036     AT NODE SCALE-1-LIN-6-1.213 OF CONTACT 
   PAIR (GENERAL_CONTACT_EDGES_16,GENERAL_CONTACT_FACES_01)
          PENETRATION ERROR TOO LARGE COMPARED TO DISPLACEMENT INCREMENT.

 AVERAGE FORCE                      8.296E-03   TIME AVG. FORCE       8.296E-03
 LARGEST RESIDUAL FORCE             -2.13       AT NODE       1159   DOF  2
   INSTANCE: SCALE-1-LIN-7-1                                                                 
 LARGEST INCREMENT OF DISP.         0.335       AT NODE        205   DOF  2
   INSTANCE: SCALE-1                                                                         
 LARGEST CORRECTION TO DISP.       -0.111       AT NODE        434   DOF  2
   INSTANCE: SUBSTRATE-1                                                                     
          FORCE     EQUILIBRIUM NOT ACHIEVED WITHIN TOLERANCE.

 AVERAGE MOMENT                      0.00       TIME AVG. MOMENT      1.462E-02
                                                (FROM FORCE     FIELD)
 LARGEST RESIDUAL MOMENT           -4.112E-06   AT NODE          3   DOF  4
   INSTANCE:                                                                                 
 LARGEST INCREMENT OF ROTATION     -9.459E-09   AT NODE          3   DOF  6
   INSTANCE: {assembly node}                                                                 
 LARGEST CORRECTION TO ROTATION    -3.383E-09   AT NODE          3   DOF  6
   INSTANCE: {assembly node}                                                                 
          ALL ROTATION CORRECTIONS ARE ZERO

  NUMBER OF EQUATIONS =     55149     NUMBER OF RHS =    1
  NUMBER OF FLOATING PT. OPERATIONS =  1.43E+09

  USING THE DIRECT SOLVER WITH   6 PROCESSORS

     CHECK POINT   START OF SOLVER    

     CHECK POINT  END OF SOLVER       

       ELAPSED USER TIME (SEC)      =  0.60000    
       ELAPSED SYSTEM TIME (SEC)    =   0.0000    
       ELAPSED TOTAL CPU TIME (SEC) =  0.60000    
       ELAPSED WALLCLOCK TIME (SEC) =          0
  
     ASYNCHRONOUS TRACKING ELEMENT LOOP STARTED
  

                   15 SEVERE DISCONTINUITIES OCCURRED DURING THIS ITERATION.
                   15 POINTS CHANGED FROM STICKING TO SLIPPING

               CONVERGENCE CHECKS FOR SEVERE DISCONTINUITY ITERATION     3

   MAX. PENETRATION ERROR -1.32737E-03 AT NODE SUBSTRATE-1.176 OF CONTACT PAIR 
   (ASSEMBLY__PICKEDSURF127,ASSEMBLY__PICKEDSURF126)
   MAX. CONTACT FORCE ERROR 1.79615     AT NODE SCALE-1-LIN-6-1.213 OF CONTACT 
   PAIR (GENERAL_CONTACT_EDGES_16,GENERAL_CONTACT_FACES_01)
          THE ESTIMATED CONTACT FORCE ERROR IS OUTSIDE OF CONVERGENCE TOLERANCES.

 AVERAGE FORCE                      9.771E-03   TIME AVG. FORCE       9.771E-03
 LARGEST RESIDUAL FORCE             -1.60       AT NODE       1158   DOF  2
   INSTANCE: SCALE-1-LIN-14-1                                                                
 LARGEST INCREMENT OF DISP.         0.378       AT NODE        205   DOF  2
   INSTANCE: SCALE-1                                                                         
 LARGEST CORRECTION TO DISP.        5.696E-02   AT NODE       1061   DOF  2
   INSTANCE: SCALE-1                                                                         
          FORCE     EQUILIBRIUM NOT ACHIEVED WITHIN TOLERANCE.

 AVERAGE MOMENT                      0.00       TIME AVG. MOMENT      1.462E-02
                                                (FROM FORCE     FIELD)
 LARGEST RESIDUAL MOMENT            2.563E-06   AT NODE          3   DOF  5
   INSTANCE:                                                                                 
 LARGEST INCREMENT OF ROTATION     -1.020E-08   AT NODE          3   DOF  6
   INSTANCE: {assembly node}                                                                 
 LARGEST CORRECTION TO ROTATION    -7.389E-10   AT NODE          3   DOF  6
   INSTANCE: {assembly node}                                                                 
          ALL ROTATION CORRECTIONS ARE ZERO

  NUMBER OF EQUATIONS =     55149     NUMBER OF RHS =    1
  NUMBER OF FLOATING PT. OPERATIONS =  1.43E+09

  USING THE DIRECT SOLVER WITH   6 PROCESSORS

     CHECK POINT   START OF SOLVER    

     CHECK POINT  END OF SOLVER       

       ELAPSED USER TIME (SEC)      =  0.60000    
       ELAPSED SYSTEM TIME (SEC)    =   0.0000    
       ELAPSED TOTAL CPU TIME (SEC) =  0.60000    
       ELAPSED WALLCLOCK TIME (SEC) =          0
  
     ASYNCHRONOUS TRACKING ELEMENT LOOP STARTED
  

                    1 SEVERE DISCONTINUITIES OCCURRED DURING THIS ITERATION.
                    1 POINTS CHANGED FROM SLIPPING TO STICKING

               CONVERGENCE CHECKS FOR SEVERE DISCONTINUITY ITERATION     4

   MAX. PENETRATION ERROR -245.248E-06   AT NODE SUBSTRATE-1.424 OF CONTACT 
   PAIR (ASSEMBLY__PICKEDSURF127,ASSEMBLY__PICKEDSURF126)
   MAX. CONTACT FORCE ERROR -303.795E-03   AT NODE SCALE-1-LIN-6-1.213 OF 
   CONTACT PAIR (GENERAL_CONTACT_EDGES_16,GENERAL_CONTACT_FACES_01)
          THE ESTIMATED CONTACT FORCE ERROR IS OUTSIDE OF CONVERGENCE TOLERANCES.

 AVERAGE FORCE                      7.305E-03   TIME AVG. FORCE       7.305E-03
 LARGEST RESIDUAL FORCE            -0.345       AT NODE       1159   DOF  2
   INSTANCE: SCALE-1-LIN-5-1                                                                 
 LARGEST INCREMENT OF DISP.         0.399       AT NODE        132   DOF  2
   INSTANCE: SCALE-1                                                                         
 LARGEST CORRECTION TO DISP.        2.387E-02   AT NODE        132   DOF  2
   INSTANCE: SCALE-1-LIN-5-1                                                                 
          FORCE     EQUILIBRIUM NOT ACHIEVED WITHIN TOLERANCE.

 AVERAGE MOMENT                      0.00       TIME AVG. MOMENT      1.462E-02
                                                (FROM FORCE     FIELD)
 LARGEST RESIDUAL MOMENT           -6.975E-07   AT NODE          3   DOF  5
   INSTANCE:                                                                                 
 LARGEST INCREMENT OF ROTATION     -1.018E-08   AT NODE          3   DOF  6
   INSTANCE: {assembly node}                                                                 
 LARGEST CORRECTION TO ROTATION     1.813E-11   AT NODE          3   DOF  6
   INSTANCE: {assembly node}                                                                 
          ALL ROTATION CORRECTIONS ARE ZERO

  NUMBER OF EQUATIONS =     55149     NUMBER OF RHS =    1
  NUMBER OF FLOATING PT. OPERATIONS =  1.43E+09

  USING THE DIRECT SOLVER WITH   6 PROCESSORS

     CHECK POINT   START OF SOLVER    

     CHECK POINT  END OF SOLVER       

       ELAPSED USER TIME (SEC)      =  0.60000    
       ELAPSED SYSTEM TIME (SEC)    =   0.0000    
       ELAPSED TOTAL CPU TIME (SEC) =  0.60000    
       ELAPSED WALLCLOCK TIME (SEC) =          0
  
     ASYNCHRONOUS TRACKING ELEMENT LOOP STARTED
  

               CONVERGENCE CHECKS FOR EQUILIBRIUM ITERATION     1

   MAX. PENETRATION ERROR -150.813E-06   AT NODE SUBSTRATE-1.496 OF CONTACT 
   PAIR (ASSEMBLY__PICKEDSURF127,ASSEMBLY__PICKEDSURF126)
   MAX. CONTACT FORCE ERROR -49.3702E-03  AT NODE SCALE-1-LIN-6-1.213 OF 
   CONTACT PAIR (GENERAL_CONTACT_EDGES_16,GENERAL_CONTACT_FACES_01)
          THE ESTIMATED CONTACT FORCE ERROR IS OUTSIDE OF CONVERGENCE TOLERANCES.

 AVERAGE FORCE                      7.461E-03   TIME AVG. FORCE       7.461E-03
 LARGEST RESIDUAL FORCE             0.216       AT NODE        476   DOF  2
   INSTANCE: SCALE-1-LIN-14-1                                                                
 LARGEST INCREMENT OF DISP.         0.413       AT NODE        132   DOF  2
   INSTANCE: SCALE-1                                                                         
 LARGEST CORRECTION TO DISP.        1.914E-02   AT NODE         92   DOF  2
   INSTANCE: SCALE-1-LIN-14-1                                                                
          FORCE     EQUILIBRIUM NOT ACHIEVED WITHIN TOLERANCE.

 AVERAGE MOMENT                      0.00       TIME AVG. MOMENT      1.462E-02
                                                (FROM FORCE     FIELD)
 LARGEST RESIDUAL MOMENT           -2.162E-07   AT NODE          2   DOF  5
   INSTANCE:                                                                                 
 LARGEST INCREMENT OF ROTATION     -1.027E-08   AT NODE          3   DOF  6
   INSTANCE: {assembly node}                                                                 
 LARGEST CORRECTION TO ROTATION    -8.906E-11   AT NODE          3   DOF  6
   INSTANCE: {assembly node}                                                                 
          ALL ROTATION CORRECTIONS ARE ZERO

  NUMBER OF EQUATIONS =     55149     NUMBER OF RHS =    1
  NUMBER OF FLOATING PT. OPERATIONS =  1.43E+09

  USING THE DIRECT SOLVER WITH   6 PROCESSORS

     CHECK POINT   START OF SOLVER    

     CHECK POINT  END OF SOLVER       

       ELAPSED USER TIME (SEC)      =  0.50000    
       ELAPSED SYSTEM TIME (SEC)    =   0.0000    
       ELAPSED TOTAL CPU TIME (SEC) =  0.50000    
       ELAPSED WALLCLOCK TIME (SEC) =          0
  
     ASYNCHRONOUS TRACKING ELEMENT LOOP STARTED
  

               CONVERGENCE CHECKS FOR EQUILIBRIUM ITERATION     2

   MAX. PENETRATION ERROR -37.9157E-06  AT NODE SUBSTRATE-1.496 OF CONTACT PAIR 
   (ASSEMBLY__PICKEDSURF127,ASSEMBLY__PICKEDSURF126)
   MAX. CONTACT FORCE ERROR -22.2063E-03  AT NODE SCALE-1-LIN-6-1.213 OF 
   CONTACT PAIR (GENERAL_CONTACT_EDGES_16,GENERAL_CONTACT_FACES_01)
          THE ESTIMATED CONTACT FORCE ERROR IS OUTSIDE OF CONVERGENCE TOLERANCES.

 AVERAGE FORCE                      7.361E-03   TIME AVG. FORCE       7.361E-03
 LARGEST RESIDUAL FORCE             1.094E-02   AT NODE        818   DOF  2
   INSTANCE: SCALE-1-LIN-5-1                                                                 
 LARGEST INCREMENT OF DISP.         0.417       AT NODE        132   DOF  2
   INSTANCE: SCALE-1                                                                         
 LARGEST CORRECTION TO DISP.        4.206E-03   AT NODE         94   DOF  2
   INSTANCE: SCALE-1-LIN-5-1                                                                 
          FORCE     EQUILIBRIUM NOT ACHIEVED WITHIN TOLERANCE.

 AVERAGE MOMENT                      0.00       TIME AVG. MOMENT      1.462E-02
                                                (FROM FORCE     FIELD)
 LARGEST RESIDUAL MOMENT            5.274E-07   AT NODE          2   DOF  5
   INSTANCE:                                                                                 
 LARGEST INCREMENT OF ROTATION     -1.030E-08   AT NODE          3   DOF  6
   INSTANCE: {assembly node}                                                                 
 LARGEST CORRECTION TO ROTATION    -3.574E-11   AT NODE          3   DOF  6
   INSTANCE: {assembly node}                                                                 
          ALL ROTATION CORRECTIONS ARE ZERO

  NUMBER OF EQUATIONS =     55149     NUMBER OF RHS =    1
  NUMBER OF FLOATING PT. OPERATIONS =  1.43E+09

  USING THE DIRECT SOLVER WITH   6 PROCESSORS

     CHECK POINT   START OF SOLVER    

     CHECK POINT  END OF SOLVER       

       ELAPSED USER TIME (SEC)      =  0.50000    
       ELAPSED SYSTEM TIME (SEC)    =   0.0000    
       ELAPSED TOTAL CPU TIME (SEC) =  0.50000    
       ELAPSED WALLCLOCK TIME (SEC) =          0
  
     ASYNCHRONOUS TRACKING ELEMENT LOOP STARTED
  

               CONVERGENCE CHECKS FOR EQUILIBRIUM ITERATION     3

   MAX. PENETRATION ERROR -14.2459E-06  AT NODE SUBSTRATE-1.424 OF CONTACT PAIR 
   (ASSEMBLY__PICKEDSURF127,ASSEMBLY__PICKEDSURF126)
   MAX. CONTACT FORCE ERROR -7.71101E-03 AT NODE SCALE-1-LIN-6-1.213 OF CONTACT 
   PAIR (GENERAL_CONTACT_EDGES_16,GENERAL_CONTACT_FACES_01)
          THE ESTIMATED CONTACT FORCE ERROR IS OUTSIDE OF CONVERGENCE TOLERANCES.

 AVERAGE FORCE                      7.372E-03   TIME AVG. FORCE       7.372E-03
 LARGEST RESIDUAL FORCE             1.026E-03   AT NODE        474   DOF  2
   INSTANCE: SCALE-1-LIN-5-1                                                                 
 LARGEST INCREMENT OF DISP.         0.417       AT NODE        132   DOF  2
   INSTANCE: SCALE-1                                                                         
 LARGEST CORRECTION TO DISP.        1.824E-03   AT NODE          7   DOF  2
   INSTANCE: SCALE-1-LIN-5-1                                                                 
          FORCE     EQUILIBRIUM NOT ACHIEVED WITHIN TOLERANCE.

 AVERAGE MOMENT                      0.00       TIME AVG. MOMENT      1.462E-02
                                                (FROM FORCE     FIELD)
 LARGEST RESIDUAL MOMENT            1.408E-06   AT NODE          3   DOF  5
   INSTANCE:                                                                                 
 LARGEST INCREMENT OF ROTATION     -1.032E-08   AT NODE          3   DOF  6
   INSTANCE: {assembly node}                                                                 
 LARGEST CORRECTION TO ROTATION    -1.411E-11   AT NODE          3   DOF  6
   INSTANCE: {assembly node}                                                                 
          ALL ROTATION CORRECTIONS ARE ZERO

  NUMBER OF EQUATIONS =     55149     NUMBER OF RHS =    1
  NUMBER OF FLOATING PT. OPERATIONS =  1.43E+09

  USING THE DIRECT SOLVER WITH   6 PROCESSORS

     CHECK POINT   START OF SOLVER    

     CHECK POINT  END OF SOLVER       

       ELAPSED USER TIME (SEC)      =  0.60000    
       ELAPSED SYSTEM TIME (SEC)    =   0.0000    
       ELAPSED TOTAL CPU TIME (SEC) =  0.60000    
       ELAPSED WALLCLOCK TIME (SEC) =          0
  
     ASYNCHRONOUS TRACKING ELEMENT LOOP STARTED
  

               CONVERGENCE CHECKS FOR EQUILIBRIUM ITERATION     4

   MAX. PENETRATION ERROR -2.23839E-06 AT NODE SUBSTRATE-1.496 OF CONTACT PAIR 
   (ASSEMBLY__PICKEDSURF127,ASSEMBLY__PICKEDSURF126)
   MAX. CONTACT FORCE ERROR -1.51388E-03 AT NODE SCALE-1-LIN-6-1.213 OF CONTACT 
   PAIR (GENERAL_CONTACT_EDGES_16,GENERAL_CONTACT_FACES_01)
          THE CONTACT CONSTRAINTS HAVE CONVERGED.

 AVERAGE FORCE                      7.373E-03   TIME AVG. FORCE       7.373E-03
 LARGEST RESIDUAL FORCE             6.789E-05   AT NODE        133   DOF  2
   INSTANCE: SCALE-1-LIN-14-1                                                                
 LARGEST INCREMENT OF DISP.         0.418       AT NODE        132   DOF  2
   INSTANCE: SCALE-1                                                                         
 LARGEST CORRECTION TO DISP.        1.121E-04   AT NODE          6   DOF  2
   INSTANCE: SCALE-1-LIN-5-1                                                                 
          FORCE     EQUILIBRIUM NOT ACHIEVED WITHIN TOLERANCE.

 AVERAGE MOMENT                      0.00       TIME AVG. MOMENT      1.462E-02
                                                (FROM FORCE     FIELD)
 LARGEST RESIDUAL MOMENT           -9.130E-07   AT NODE          3   DOF  5
   INSTANCE:                                                                                 
 LARGEST INCREMENT OF ROTATION     -1.032E-08   AT NODE          3   DOF  6
   INSTANCE: {assembly node}                                                                 
 LARGEST CORRECTION TO ROTATION    -2.009E-12   AT NODE          3   DOF  6
   INSTANCE: {assembly node}                                                                 
          ALL ROTATION CORRECTIONS ARE ZERO

  NUMBER OF EQUATIONS =     55149     NUMBER OF RHS =    1
  NUMBER OF FLOATING PT. OPERATIONS =  1.43E+09

  USING THE DIRECT SOLVER WITH   6 PROCESSORS

     CHECK POINT   START OF SOLVER    

     CHECK POINT  END OF SOLVER       

       ELAPSED USER TIME (SEC)      =  0.50000    
       ELAPSED SYSTEM TIME (SEC)    =   0.0000    
       ELAPSED TOTAL CPU TIME (SEC) =  0.50000    
       ELAPSED WALLCLOCK TIME (SEC) =          0
  
     ASYNCHRONOUS TRACKING ELEMENT LOOP STARTED
  

               CONVERGENCE CHECKS FOR EQUILIBRIUM ITERATION     5

   MAX. PENETRATION ERROR -520.453E-09   AT NODE SUBSTRATE-1.424 OF CONTACT 
   PAIR (ASSEMBLY__PICKEDSURF127,ASSEMBLY__PICKEDSURF126)
   MAX. CONTACT FORCE ERROR -275.420E-06   AT NODE SCALE-1-LIN-6-1.213 OF 
   CONTACT PAIR (GENERAL_CONTACT_EDGES_16,GENERAL_CONTACT_FACES_01)
          THE CONTACT CONSTRAINTS HAVE CONVERGED.

 AVERAGE FORCE                      7.374E-03   TIME AVG. FORCE       7.374E-03
 LARGEST RESIDUAL FORCE             3.672E-05   AT NODE         11   DOF  3
   INSTANCE: SCALE-1-LIN-5-1                                                                 
 LARGEST INCREMENT OF DISP.         0.418       AT NODE        132   DOF  2
   INSTANCE: SCALE-1                                                                         
 LARGEST CORRECTION TO DISP.       -1.682E-05   AT NODE         11   DOF  3
   INSTANCE: SCALE-1-LIN-5-1                                                                 
          THE FORCE     EQUILIBRIUM EQUATIONS HAVE CONVERGED

 AVERAGE MOMENT                      0.00       TIME AVG. MOMENT      1.462E-02
                                                (FROM FORCE     FIELD)
 LARGEST RESIDUAL MOMENT            7.841E-07   AT NODE          2   DOF  5
   INSTANCE:                                                                                 
 LARGEST INCREMENT OF ROTATION     -1.032E-08   AT NODE          3   DOF  6
   INSTANCE: {assembly node}                                                                 
 LARGEST CORRECTION TO ROTATION    -4.871E-13   AT NODE          3   DOF  6
   INSTANCE: {assembly node}                                                                 
          ALL ROTATION CORRECTIONS ARE ZERO

 ITERATION SUMMARY FOR THE INCREMENT:   9 TOTAL ITERATIONS, OF WHICH
   4 ARE SEVERE DISCONTINUITY ITERATIONS AND  5 ARE EQUILIBRIUM ITERATIONS.

 TIME INCREMENT COMPLETED  1.000E-02,  FRACTION OF STEP COMPLETED  1.667E-04
 STEP TIME COMPLETED       1.000E-02,  TOTAL TIME COMPLETED        1.000E-02


  INCREMENT     2 STARTS. ATTEMPT NUMBER  1, TIME INCREMENT  1.000E-02
  
     ASYNCHRONOUS TRACKING ELEMENT LOOP STARTED
  

                   28 SEVERE DISCONTINUITIES OCCURRED DURING INCREMENT ATTEMPT INITIALIZATION.
                   28 POINTS CHANGED FROM STICKING TO SLIPPING

  NUMBER OF EQUATIONS =     55149     NUMBER OF RHS =    1
  NUMBER OF FLOATING PT. OPERATIONS =  1.43E+09

  USING THE DIRECT SOLVER WITH   6 PROCESSORS

     CHECK POINT   START OF SOLVER    

     CHECK POINT  END OF SOLVER       

       ELAPSED USER TIME (SEC)      =  0.40000    
       ELAPSED SYSTEM TIME (SEC)    =   0.0000    
       ELAPSED TOTAL CPU TIME (SEC) =  0.40000    
       ELAPSED WALLCLOCK TIME (SEC) =          0
  
     ASYNCHRONOUS TRACKING ELEMENT LOOP STARTED
  

                   56 SEVERE DISCONTINUITIES OCCURRED DURING THIS ITERATION.
                   28 POINTS CHANGED FROM CLOSED TO OPEN
                   28 POINTS CHANGED FROM SLIPPING TO STICKING

               CONVERGENCE CHECKS FOR SEVERE DISCONTINUITY ITERATION     1

   MAX. PENETRATION ERROR 5.76839E-03 AT NODE SUBSTRATE-1.174 OF CONTACT PAIR 
   (ASSEMBLY__PICKEDSURF127,ASSEMBLY__PICKEDSURF126)
   MAX. CONTACT FORCE ERROR -269.842E-03   AT NODE SCALE-1-LIN-5-1.11 OF 
   CONTACT PAIR (GENERAL_CONTACT_VERTICES_17,GENERAL_CONTACT_FACES_01)
          PENETRATION ERROR TOO LARGE COMPARED TO DISPLACEMENT INCREMENT.

 AVERAGE FORCE                      0.371       TIME AVG. FORCE       0.189    
 LARGEST RESIDUAL FORCE             -23.1       AT NODE       1157   DOF  2
   INSTANCE: SCALE-1-LIN-14-1                                                                
 LARGEST INCREMENT OF DISP.         0.136       AT NODE        202   DOF  2
   INSTANCE: SCALE-1-LIN-14-1                                                                
 LARGEST CORRECTION TO DISP.       -0.344       AT NODE        132   DOF  2
   INSTANCE: SCALE-1-LIN-2-1                                                                 
          FORCE     EQUILIBRIUM NOT ACHIEVED WITHIN TOLERANCE.

 AVERAGE MOMENT                      0.00       TIME AVG. MOMENT      1.078E-02
                                                (FROM FORCE     FIELD)
 LARGEST RESIDUAL MOMENT           -1.360E-06   AT NODE          3   DOF  5
   INSTANCE:                                                                                 
 LARGEST INCREMENT OF ROTATION      9.526E-09   AT NODE          3   DOF  6
   INSTANCE: {assembly node}                                                                 
 LARGEST CORRECTION TO ROTATION     1.985E-08   AT NODE          3   DOF  6
   INSTANCE: {assembly node}                                                                 
          THE MOMENT    IS ZERO EVERYWHERE BUT THE MOMENT    RESIDUAL OR
          THE ROTATION CORRECTION IS NON-ZERO

  NUMBER OF EQUATIONS =     55149     NUMBER OF RHS =    1
  NUMBER OF FLOATING PT. OPERATIONS =  1.40E+09

  USING THE DIRECT SOLVER WITH   6 PROCESSORS

     CHECK POINT   START OF SOLVER    

     CHECK POINT  END OF SOLVER       

       ELAPSED USER TIME (SEC)      =  0.50000    
       ELAPSED SYSTEM TIME (SEC)    =   0.0000    
       ELAPSED TOTAL CPU TIME (SEC) =  0.50000    
       ELAPSED WALLCLOCK TIME (SEC) =          1
  
     ASYNCHRONOUS TRACKING ELEMENT LOOP STARTED
  

                   14 SEVERE DISCONTINUITIES OCCURRED DURING THIS ITERATION.
                   14 POINTS CHANGED FROM STICKING TO SLIPPING

               CONVERGENCE CHECKS FOR SEVERE DISCONTINUITY ITERATION     2

   MAX. PENETRATION ERROR -3.63829E-03 AT NODE SUBSTRATE-1.174 OF CONTACT PAIR 
   (ASSEMBLY__PICKEDSURF127,ASSEMBLY__PICKEDSURF126)
   MAX. CONTACT FORCE ERROR 689.139E-03   AT NODE SCALE-1-LIN-6-1.213 OF 
   CONTACT PAIR (GENERAL_CONTACT_EDGES_16,GENERAL_CONTACT_FACES_01)
          PENETRATION ERROR TOO LARGE COMPARED TO DISPLACEMENT INCREMENT.

 AVERAGE FORCE                      5.606E-02   TIME AVG. FORCE       3.172E-02
 LARGEST RESIDUAL FORCE             0.105       AT NODE        815   DOF  3
   INSTANCE: SCALE-1-LIN-14-1                                                                
 LARGEST INCREMENT OF DISP.         0.136       AT NODE        136   DOF  2
   INSTANCE: SCALE-1-LIN-14-1                                                                
 LARGEST CORRECTION TO DISP.        4.002E-02   AT NODE        160   DOF  3
   INSTANCE: SUBSTRATE-1                                                                     
          FORCE     EQUILIBRIUM NOT ACHIEVED WITHIN TOLERANCE.

 AVERAGE MOMENT                      0.00       TIME AVG. MOMENT      1.078E-02
                                                (FROM FORCE     FIELD)
 LARGEST RESIDUAL MOMENT           -7.264E-07   AT NODE          3   DOF  4
   INSTANCE:                                                                                 
 LARGEST INCREMENT OF ROTATION      9.091E-09   AT NODE          3   DOF  6
   INSTANCE: {assembly node}                                                                 
 LARGEST CORRECTION TO ROTATION    -4.349E-10   AT NODE          3   DOF  6
   INSTANCE: {assembly node}                                                                 
          ALL ROTATION CORRECTIONS ARE ZERO

  NUMBER OF EQUATIONS =     55149     NUMBER OF RHS =    1
  NUMBER OF FLOATING PT. OPERATIONS =  1.40E+09

  USING THE DIRECT SOLVER WITH   6 PROCESSORS

     CHECK POINT   START OF SOLVER    

     CHECK POINT  END OF SOLVER       

       ELAPSED USER TIME (SEC)      =  0.50000    
       ELAPSED SYSTEM TIME (SEC)    =  0.10000    
       ELAPSED TOTAL CPU TIME (SEC) =  0.60000    
       ELAPSED WALLCLOCK TIME (SEC) =          0
  
     ASYNCHRONOUS TRACKING ELEMENT LOOP STARTED
  

                   14 SEVERE DISCONTINUITIES OCCURRED DURING THIS ITERATION.
                   14 POINTS CHANGED FROM OPEN TO CLOSED

               CONVERGENCE CHECKS FOR SEVERE DISCONTINUITY ITERATION     3

   MAX. PENETRATION ERROR 10.2910E-03  AT NODE SUBSTRATE-1.387 OF CONTACT PAIR 
   (ASSEMBLY__PICKEDSURF127,ASSEMBLY__PICKEDSURF126)
   MAX. CONTACT FORCE ERROR -867.095E-03   AT NODE SCALE-1-LIN-6-1.213 OF 
   CONTACT PAIR (GENERAL_CONTACT_EDGES_16,GENERAL_CONTACT_FACES_01)
          PENETRATION ERROR TOO LARGE COMPARED TO DISPLACEMENT INCREMENT.

 AVERAGE FORCE                      5.588E-02   TIME AVG. FORCE       3.163E-02
 LARGEST RESIDUAL FORCE            -0.842       AT NODE       1156   DOF  2
   INSTANCE: SCALE-1-LIN-14-1                                                                
 LARGEST INCREMENT OF DISP.         0.169       AT NODE        137   DOF  2
   INSTANCE: SCALE-1-LIN-14-1                                                                
 LARGEST CORRECTION TO DISP.        4.048E-02   AT NODE        138   DOF  2
   INSTANCE: SCALE-1-LIN-14-1                                                                
          FORCE     EQUILIBRIUM NOT ACHIEVED WITHIN TOLERANCE.

 AVERAGE MOMENT                      0.00       TIME AVG. MOMENT      1.078E-02
                                                (FROM FORCE     FIELD)
 LARGEST RESIDUAL MOMENT           -1.077E-06   AT NODE          3   DOF  5
   INSTANCE:                                                                                 
 LARGEST INCREMENT OF ROTATION      9.058E-09   AT NODE          3   DOF  6
   INSTANCE: {assembly node}                                                                 
 LARGEST CORRECTION TO ROTATION    -3.319E-11   AT NODE          3   DOF  6
   INSTANCE: {assembly node}                                                                 
          ALL ROTATION CORRECTIONS ARE ZERO

  NUMBER OF EQUATIONS =     55149     NUMBER OF RHS =    1
  NUMBER OF FLOATING PT. OPERATIONS =  1.40E+09

  USING THE DIRECT SOLVER WITH   6 PROCESSORS

     CHECK POINT   START OF SOLVER    

     CHECK POINT  END OF SOLVER       

       ELAPSED USER TIME (SEC)      =  0.60000    
       ELAPSED SYSTEM TIME (SEC)    =   0.0000    
       ELAPSED TOTAL CPU TIME (SEC) =  0.60000    
       ELAPSED WALLCLOCK TIME (SEC) =          0
  
     ASYNCHRONOUS TRACKING ELEMENT LOOP STARTED
  

               CONVERGENCE CHECKS FOR EQUILIBRIUM ITERATION     1

   MAX. PENETRATION ERROR -129.859E-06   AT NODE SUBSTRATE-1.387 OF CONTACT 
   PAIR (ASSEMBLY__PICKEDSURF127,ASSEMBLY__PICKEDSURF126)
   MAX. CONTACT FORCE ERROR 96.4925E-03  AT NODE SCALE-1-LIN-6-1.213 OF CONTACT 
   PAIR (GENERAL_CONTACT_EDGES_16,GENERAL_CONTACT_FACES_01)
          THE ESTIMATED CONTACT FORCE ERROR IS OUTSIDE OF CONVERGENCE TOLERANCES.

 AVERAGE FORCE                      5.348E-02   TIME AVG. FORCE       3.043E-02
 LARGEST RESIDUAL FORCE            -5.762E-02   AT NODE       1159   DOF  2
   INSTANCE: SCALE-1                                                                         
 LARGEST INCREMENT OF DISP.         0.179       AT NODE        137   DOF  2
   INSTANCE: SCALE-1-LIN-14-1                                                                
 LARGEST CORRECTION TO DISP.        2.001E-02   AT NODE        759   DOF  2
   INSTANCE: SCALE-1                                                                         
          FORCE     EQUILIBRIUM NOT ACHIEVED WITHIN TOLERANCE.

 AVERAGE MOMENT                      0.00       TIME AVG. MOMENT      1.078E-02
                                                (FROM FORCE     FIELD)
 LARGEST RESIDUAL MOMENT            8.584E-07   AT NODE          3   DOF  5
   INSTANCE:                                                                                 
 LARGEST INCREMENT OF ROTATION      8.961E-09   AT NODE          3   DOF  6
   INSTANCE: {assembly node}                                                                 
 LARGEST CORRECTION TO ROTATION    -9.601E-11   AT NODE          3   DOF  6
   INSTANCE: {assembly node}                                                                 
          ALL ROTATION CORRECTIONS ARE ZERO

  NUMBER OF EQUATIONS =     55149     NUMBER OF RHS =    1
  NUMBER OF FLOATING PT. OPERATIONS =  1.40E+09

  USING THE DIRECT SOLVER WITH   6 PROCESSORS

     CHECK POINT   START OF SOLVER    

     CHECK POINT  END OF SOLVER       

       ELAPSED USER TIME (SEC)      =  0.50000    
       ELAPSED SYSTEM TIME (SEC)    =   0.0000    
       ELAPSED TOTAL CPU TIME (SEC) =  0.50000    
       ELAPSED WALLCLOCK TIME (SEC) =          0
  
     ASYNCHRONOUS TRACKING ELEMENT LOOP STARTED
  

               CONVERGENCE CHECKS FOR EQUILIBRIUM ITERATION     2

   MAX. PENETRATION ERROR 54.7597E-06  AT NODE SUBSTRATE-1.419 OF CONTACT PAIR 
   (ASSEMBLY__PICKEDSURF127,ASSEMBLY__PICKEDSURF126)
   MAX. CONTACT FORCE ERROR -5.59033E-03 AT NODE SCALE-1-LIN-5-1.11 OF CONTACT 
   PAIR (GENERAL_CONTACT_VERTICES_17,GENERAL_CONTACT_FACES_01)
          THE CONTACT CONSTRAINTS HAVE CONVERGED.

 AVERAGE FORCE                      5.352E-02   TIME AVG. FORCE       3.045E-02
 LARGEST RESIDUAL FORCE             4.291E-03   AT NODE        814   DOF  2
   INSTANCE: SCALE-1-LIN-14-1                                                                
 LARGEST INCREMENT OF DISP.         0.176       AT NODE        137   DOF  2
   INSTANCE: SCALE-1-LIN-14-1                                                                
 LARGEST CORRECTION TO DISP.       -3.625E-03   AT NODE        138   DOF  2
   INSTANCE: SCALE-1-LIN-14-1                                                                
          FORCE     EQUILIBRIUM NOT ACHIEVED WITHIN TOLERANCE.

 AVERAGE MOMENT                      0.00       TIME AVG. MOMENT      1.078E-02
                                                (FROM FORCE     FIELD)
 LARGEST RESIDUAL MOMENT           -4.080E-07   AT NODE          2   DOF  5
   INSTANCE:                                                                                 
 LARGEST INCREMENT OF ROTATION      8.974E-09   AT NODE          3   DOF  6
   INSTANCE: {assembly node}                                                                 
 LARGEST CORRECTION TO ROTATION     1.264E-11   AT NODE          3   DOF  6
   INSTANCE: {assembly node}                                                                 
          ALL ROTATION CORRECTIONS ARE ZERO

  NUMBER OF EQUATIONS =     55149     NUMBER OF RHS =    1
  NUMBER OF FLOATING PT. OPERATIONS =  1.40E+09

  USING THE DIRECT SOLVER WITH   6 PROCESSORS

     CHECK POINT   START OF SOLVER    

     CHECK POINT  END OF SOLVER       

       ELAPSED USER TIME (SEC)      =  0.50000    
       ELAPSED SYSTEM TIME (SEC)    =   0.0000    
       ELAPSED TOTAL CPU TIME (SEC) =  0.50000    
       ELAPSED WALLCLOCK TIME (SEC) =          0
  
     ASYNCHRONOUS TRACKING ELEMENT LOOP STARTED
  

               CONVERGENCE CHECKS FOR EQUILIBRIUM ITERATION     3

   MAX. PENETRATION ERROR -7.41253E-06 AT NODE SUBSTRATE-1.387 OF CONTACT PAIR 
   (ASSEMBLY__PICKEDSURF127,ASSEMBLY__PICKEDSURF126)
   MAX. CONTACT FORCE ERROR 1.27049E-03 AT NODE SCALE-1-LIN-5-1.11 OF CONTACT 
   PAIR (GENERAL_CONTACT_VERTICES_17,GENERAL_CONTACT_FACES_01)
          THE CONTACT CONSTRAINTS HAVE CONVERGED.

 AVERAGE FORCE                      5.353E-02   TIME AVG. FORCE       3.045E-02
 LARGEST RESIDUAL FORCE             7.563E-05   AT NODE        133   DOF  3
   INSTANCE: SCALE-1                                                                         
 LARGEST INCREMENT OF DISP.         0.176       AT NODE        137   DOF  2
   INSTANCE: SCALE-1-LIN-14-1                                                                
 LARGEST CORRECTION TO DISP.       -2.323E-04   AT NODE          7   DOF  2
   INSTANCE: SCALE-1                                                                         
          THE FORCE     EQUILIBRIUM EQUATIONS HAVE CONVERGED

 AVERAGE MOMENT                      0.00       TIME AVG. MOMENT      1.078E-02
                                                (FROM FORCE     FIELD)
 LARGEST RESIDUAL MOMENT           -3.012E-07   AT NODE          3   DOF  5
   INSTANCE:                                                                                 
 LARGEST INCREMENT OF ROTATION      8.974E-09   AT NODE          3   DOF  6
   INSTANCE: {assembly node}                                                                 
 LARGEST CORRECTION TO ROTATION     9.112E-14   AT NODE          3   DOF  5
   INSTANCE: {assembly node}                                                                 
          ALL ROTATION CORRECTIONS ARE ZERO

 ITERATION SUMMARY FOR THE INCREMENT:   6 TOTAL ITERATIONS, OF WHICH
   3 ARE SEVERE DISCONTINUITY ITERATIONS AND  3 ARE EQUILIBRIUM ITERATIONS.

 TIME INCREMENT COMPLETED  1.000E-02,  FRACTION OF STEP COMPLETED  3.333E-04
 STEP TIME COMPLETED       2.000E-02,  TOTAL TIME COMPLETED        2.000E-02


  INCREMENT     3 STARTS. ATTEMPT NUMBER  1, TIME INCREMENT  1.000E-02
  
     ASYNCHRONOUS TRACKING ELEMENT LOOP STARTED
  

                   28 SEVERE DISCONTINUITIES OCCURRED DURING INCREMENT ATTEMPT INITIALIZATION.
                   28 POINTS CHANGED TO SLIPPING WITH NEGATIVE CPRESS

  NUMBER OF EQUATIONS =     55149     NUMBER OF RHS =    1
  NUMBER OF FLOATING PT. OPERATIONS =  1.40E+09

  USING THE DIRECT SOLVER WITH   6 PROCESSORS

     CHECK POINT   START OF SOLVER    

     CHECK POINT  END OF SOLVER       

       ELAPSED USER TIME (SEC)      =  0.50000    
       ELAPSED SYSTEM TIME (SEC)    =   0.0000    
       ELAPSED TOTAL CPU TIME (SEC) =  0.50000    
       ELAPSED WALLCLOCK TIME (SEC) =          0
  
     ASYNCHRONOUS TRACKING ELEMENT LOOP STARTED
  

                   29 SEVERE DISCONTINUITIES OCCURRED DURING THIS ITERATION.
                   15 POINTS CHANGED FROM CLOSED TO OPEN
                   14 POINTS CHANGED FROM SLIPPING TO STICKING

               CONVERGENCE CHECKS FOR SEVERE DISCONTINUITY ITERATION     1

   MAX. PENETRATION ERROR -159.718E-06   AT NODE SUBSTRATE-1.150 OF CONTACT 
   PAIR (ASSEMBLY__PICKEDSURF127,ASSEMBLY__PICKEDSURF126)
   MAX. CONTACT FORCE ERROR 86.8953E-03  AT NODE SCALE-1-LIN-5-1.11 OF CONTACT 
   PAIR (GENERAL_CONTACT_VERTICES_17,GENERAL_CONTACT_FACES_01)
          THE ESTIMATED CONTACT FORCE ERROR IS OUTSIDE OF CONVERGENCE TOLERANCES.

 AVERAGE FORCE                      6.855E-02   TIME AVG. FORCE       4.315E-02
 LARGEST RESIDUAL FORCE             -2.41       AT NODE       1157   DOF  2
   INSTANCE: SCALE-1-LIN-14-1                                                                
 LARGEST INCREMENT OF DISP.         8.136E-02   AT NODE          4   DOF  2
   INSTANCE: SCALE-1-LIN-14-1                                                                
 LARGEST CORRECTION TO DISP.       -0.108       AT NODE        201   DOF  2
   INSTANCE: SCALE-1-LIN-14-1                                                                
          FORCE     EQUILIBRIUM NOT ACHIEVED WITHIN TOLERANCE.

 AVERAGE MOMENT                      0.00       TIME AVG. MOMENT      4.452E-02
                                                (FROM FORCE     FIELD)
 LARGEST RESIDUAL MOMENT            2.662E-06   AT NODE          3   DOF  5
   INSTANCE:                                                                                 
 LARGEST INCREMENT OF ROTATION      1.219E-09   AT NODE          3   DOF  6
   INSTANCE: {assembly node}                                                                 
 LARGEST CORRECTION TO ROTATION    -7.755E-09   AT NODE          3   DOF  6
   INSTANCE: {assembly node}                                                                 
          ALL ROTATION CORRECTIONS ARE ZERO

  NUMBER OF EQUATIONS =     55149     NUMBER OF RHS =    1
  NUMBER OF FLOATING PT. OPERATIONS =  1.36E+09

  USING THE DIRECT SOLVER WITH   6 PROCESSORS

     CHECK POINT   START OF SOLVER    

     CHECK POINT  END OF SOLVER       

       ELAPSED USER TIME (SEC)      =  0.60000    
       ELAPSED SYSTEM TIME (SEC)    =   0.0000    
       ELAPSED TOTAL CPU TIME (SEC) =  0.60000    
       ELAPSED WALLCLOCK TIME (SEC) =          0
  
     ASYNCHRONOUS TRACKING ELEMENT LOOP STARTED
  

                   14 SEVERE DISCONTINUITIES OCCURRED DURING THIS ITERATION.
                   14 POINTS CHANGED FROM SLIPPING TO STICKING

               CONVERGENCE CHECKS FOR SEVERE DISCONTINUITY ITERATION     2

   MAX. PENETRATION ERROR 255.538E-06   AT NODE SUBSTRATE-1.150 OF CONTACT PAIR 
   (ASSEMBLY__PICKEDSURF127,ASSEMBLY__PICKEDSURF126)
   MAX. CONTACT FORCE ERROR -37.1350E-03  AT NODE SCALE-1-LIN-5-1.11 OF CONTACT 
   PAIR (GENERAL_CONTACT_VERTICES_17,GENERAL_CONTACT_FACES_01)
          THE ESTIMATED CONTACT FORCE ERROR IS OUTSIDE OF CONVERGENCE TOLERANCES.

 AVERAGE FORCE                      5.052E-02   TIME AVG. FORCE       3.714E-02
 LARGEST RESIDUAL FORCE             1.088E-02   AT NODE        818   DOF  2
   INSTANCE: SCALE-1-LIN-5-1                                                                 
 LARGEST INCREMENT OF DISP.         8.105E-02   AT NODE          4   DOF  2
   INSTANCE: SCALE-1-LIN-14-1                                                                
 LARGEST CORRECTION TO DISP.        6.708E-03   AT NODE       1101   DOF  2
   INSTANCE: SCALE-1-LIN-5-1                                                                 
          FORCE     EQUILIBRIUM NOT ACHIEVED WITHIN TOLERANCE.

 AVERAGE MOMENT                      0.00       TIME AVG. MOMENT      4.452E-02
                                                (FROM FORCE     FIELD)
 LARGEST RESIDUAL MOMENT           -1.167E-06   AT NODE          3   DOF  5
   INSTANCE:                                                                                 
 LARGEST INCREMENT OF ROTATION      1.217E-09   AT NODE          3   DOF  6
   INSTANCE: {assembly node}                                                                 
 LARGEST CORRECTION TO ROTATION    -2.173E-12   AT NODE          3   DOF  6
   INSTANCE: {assembly node}                                                                 
          ALL ROTATION CORRECTIONS ARE ZERO

  NUMBER OF EQUATIONS =     55149     NUMBER OF RHS =    1
  NUMBER OF FLOATING PT. OPERATIONS =  1.36E+09

  USING THE DIRECT SOLVER WITH   6 PROCESSORS

     CHECK POINT   START OF SOLVER    

     CHECK POINT  END OF SOLVER       

       ELAPSED USER TIME (SEC)      =  0.40000    
       ELAPSED SYSTEM TIME (SEC)    =   0.0000    
       ELAPSED TOTAL CPU TIME (SEC) =  0.40000    
       ELAPSED WALLCLOCK TIME (SEC) =          0
  
     ASYNCHRONOUS TRACKING ELEMENT LOOP STARTED
  

               CONVERGENCE CHECKS FOR EQUILIBRIUM ITERATION     1

   MAX. PENETRATION ERROR -21.1746E-06  AT NODE SUBSTRATE-1.488 OF CONTACT PAIR 
   (ASSEMBLY__PICKEDSURF127,ASSEMBLY__PICKEDSURF126)
   MAX. CONTACT FORCE ERROR 8.88492E-03 AT NODE SCALE-1-LIN-5-1.11 OF CONTACT 
   PAIR (GENERAL_CONTACT_VERTICES_17,GENERAL_CONTACT_FACES_01)
          THE CONTACT CONSTRAINTS HAVE CONVERGED.

 AVERAGE FORCE                      5.062E-02   TIME AVG. FORCE       3.717E-02
 LARGEST RESIDUAL FORCE             1.151E-02   AT NODE        815   DOF  2
   INSTANCE: SCALE-1-LIN-5-1                                                                 
 LARGEST INCREMENT OF DISP.         7.764E-02   AT NODE          4   DOF  2
   INSTANCE: SCALE-1-LIN-14-1                                                                
 LARGEST CORRECTION TO DISP.       -4.079E-03   AT NODE          4   DOF  2
   INSTANCE: SCALE-1-LIN-5-1                                                                 
          FORCE     EQUILIBRIUM NOT ACHIEVED WITHIN TOLERANCE.

 AVERAGE MOMENT                      0.00       TIME AVG. MOMENT      4.452E-02
                                                (FROM FORCE     FIELD)
 LARGEST RESIDUAL MOMENT           -6.648E-07   AT NODE          3   DOF  5
   INSTANCE:                                                                                 
 LARGEST INCREMENT OF ROTATION      1.217E-09   AT NODE          3   DOF  6
   INSTANCE: {assembly node}                                                                 
 LARGEST CORRECTION TO ROTATION    -6.968E-13   AT NODE          3   DOF  6
   INSTANCE: {assembly node}                                                                 
          ALL ROTATION CORRECTIONS ARE ZERO

  NUMBER OF EQUATIONS =     55149     NUMBER OF RHS =    1
  NUMBER OF FLOATING PT. OPERATIONS =  1.36E+09

  USING THE DIRECT SOLVER WITH   6 PROCESSORS

     CHECK POINT   START OF SOLVER    

     CHECK POINT  END OF SOLVER       

       ELAPSED USER TIME (SEC)      =  0.50000    
       ELAPSED SYSTEM TIME (SEC)    =   0.0000    
       ELAPSED TOTAL CPU TIME (SEC) =  0.50000    
       ELAPSED WALLCLOCK TIME (SEC) =          0
  
     ASYNCHRONOUS TRACKING ELEMENT LOOP STARTED
  

               CONVERGENCE CHECKS FOR EQUILIBRIUM ITERATION     2

   MAX. PENETRATION ERROR 5.12204E-06 AT NODE SUBSTRATE-1.424 OF CONTACT PAIR 
   (ASSEMBLY__PICKEDSURF127,ASSEMBLY__PICKEDSURF126)
   MAX. CONTACT FORCE ERROR -1.74064E-03 AT NODE SCALE-1-LIN-5-1.11 OF CONTACT 
   PAIR (GENERAL_CONTACT_VERTICES_17,GENERAL_CONTACT_FACES_01)
          THE CONTACT CONSTRAINTS HAVE CONVERGED.

 AVERAGE FORCE                      5.064E-02   TIME AVG. FORCE       3.718E-02
 LARGEST RESIDUAL FORCE            -4.777E-05   AT NODE        133   DOF  2
   INSTANCE: SCALE-1-LIN-14-1                                                                
 LARGEST INCREMENT OF DISP.         7.755E-02   AT NODE          4   DOF  2
   INSTANCE: SCALE-1-LIN-14-1                                                                
 LARGEST CORRECTION TO DISP.       -1.969E-04   AT NODE          6   DOF  2
   INSTANCE: SCALE-1-LIN-5-1                                                                 
          THE FORCE     EQUILIBRIUM EQUATIONS HAVE CONVERGED

 AVERAGE MOMENT                      0.00       TIME AVG. MOMENT      4.452E-02
                                                (FROM FORCE     FIELD)
 LARGEST RESIDUAL MOMENT            1.411E-06   AT NODE          3   DOF  5
   INSTANCE:                                                                                 
 LARGEST INCREMENT OF ROTATION      1.217E-09   AT NODE          3   DOF  6
   INSTANCE: {assembly node}                                                                 
 LARGEST CORRECTION TO ROTATION     6.472E-14   AT NODE          3   DOF  6
   INSTANCE: {assembly node}                                                                 
          ALL ROTATION CORRECTIONS ARE ZERO
          TIME INCREMENT MAY NOW INCREASE TO    1.500E-02

 ITERATION SUMMARY FOR THE INCREMENT:   4 TOTAL ITERATIONS, OF WHICH
   2 ARE SEVERE DISCONTINUITY ITERATIONS AND  2 ARE EQUILIBRIUM ITERATIONS.

 TIME INCREMENT COMPLETED  1.000E-02,  FRACTION OF STEP COMPLETED  5.000E-04
 STEP TIME COMPLETED       3.000E-02,  TOTAL TIME COMPLETED        3.000E-02


  INCREMENT     4 STARTS. ATTEMPT NUMBER  1, TIME INCREMENT  1.500E-02
  
     ASYNCHRONOUS TRACKING ELEMENT LOOP STARTED
  

  NUMBER OF EQUATIONS =     55149     NUMBER OF RHS =    1
  NUMBER OF FLOATING PT. OPERATIONS =  1.36E+09

  USING THE DIRECT SOLVER WITH   6 PROCESSORS

     CHECK POINT   START OF SOLVER    

     CHECK POINT  END OF SOLVER       

       ELAPSED USER TIME (SEC)      =  0.40000    
       ELAPSED SYSTEM TIME (SEC)    =   0.0000    
       ELAPSED TOTAL CPU TIME (SEC) =  0.40000    
       ELAPSED WALLCLOCK TIME (SEC) =          0
  
     ASYNCHRONOUS TRACKING ELEMENT LOOP STARTED
  

               CONVERGENCE CHECKS FOR EQUILIBRIUM ITERATION     1

   MAX. PENETRATION ERROR -118.638E-06   AT NODE SUBSTRATE-1.156 OF CONTACT 
   PAIR (ASSEMBLY__PICKEDSURF127,ASSEMBLY__PICKEDSURF126)
   MAX. CONTACT FORCE ERROR 41.7472E-03  AT NODE SCALE-1-LIN-5-1.11 OF CONTACT 
   PAIR (GENERAL_CONTACT_VERTICES_17,GENERAL_CONTACT_FACES_01)
          THE ESTIMATED CONTACT FORCE ERROR IS OUTSIDE OF CONVERGENCE TOLERANCES.

 AVERAGE FORCE                      4.924E-02   TIME AVG. FORCE       4.020E-02
 LARGEST RESIDUAL FORCE             0.594       AT NODE        815   DOF  2
   INSTANCE: SCALE-1-LIN-14-1                                                                
 LARGEST INCREMENT OF DISP.         7.740E-02   AT NODE          4   DOF  2
   INSTANCE: SCALE-1-LIN-14-1                                                                
 LARGEST CORRECTION TO DISP.       -5.883E-02   AT NODE        138   DOF  2
   INSTANCE: SCALE-1-LIN-14-1                                                                
          FORCE     EQUILIBRIUM NOT ACHIEVED WITHIN TOLERANCE.

 AVERAGE MOMENT                      0.00       TIME AVG. MOMENT      5.436E-02
                                                (FROM FORCE     FIELD)
 LARGEST RESIDUAL MOMENT           -3.225E-06   AT NODE          3   DOF  5
   INSTANCE:                                                                                 
 LARGEST INCREMENT OF ROTATION      1.206E-10   AT NODE          3   DOF  6
   INSTANCE: {assembly node}                                                                 
 LARGEST CORRECTION TO ROTATION    -1.704E-09   AT NODE          3   DOF  6
   INSTANCE: {assembly node}                                                                 
          ALL ROTATION CORRECTIONS ARE ZERO

  NUMBER OF EQUATIONS =     55149     NUMBER OF RHS =    1
  NUMBER OF FLOATING PT. OPERATIONS =  1.36E+09

  USING THE DIRECT SOLVER WITH   6 PROCESSORS

     CHECK POINT   START OF SOLVER    

     CHECK POINT  END OF SOLVER       

       ELAPSED USER TIME (SEC)      =  0.40000    
       ELAPSED SYSTEM TIME (SEC)    =   0.0000    
       ELAPSED TOTAL CPU TIME (SEC) =  0.40000    
       ELAPSED WALLCLOCK TIME (SEC) =          0
  
     ASYNCHRONOUS TRACKING ELEMENT LOOP STARTED
  

               CONVERGENCE CHECKS FOR EQUILIBRIUM ITERATION     2

   MAX. PENETRATION ERROR 90.5520E-06  AT NODE SUBSTRATE-1.150 OF CONTACT PAIR 
   (ASSEMBLY__PICKEDSURF127,ASSEMBLY__PICKEDSURF126)
   MAX. CONTACT FORCE ERROR -8.84868E-03 AT NODE SCALE-1-LIN-5-1.11 OF CONTACT 
   PAIR (GENERAL_CONTACT_VERTICES_17,GENERAL_CONTACT_FACES_01)
          THE CONTACT CONSTRAINTS HAVE CONVERGED.

 AVERAGE FORCE                      4.672E-02   TIME AVG. FORCE       3.956E-02
 LARGEST RESIDUAL FORCE            -5.455E-04   AT NODE        815   DOF  3
   INSTANCE: SCALE-1                                                                         
 LARGEST INCREMENT OF DISP.         7.759E-02   AT NODE          4   DOF  2
   INSTANCE: SCALE-1-LIN-14-1                                                                
 LARGEST CORRECTION TO DISP.       -1.232E-03   AT NODE        741   DOF  2
   INSTANCE: SCALE-1-LIN-5-1                                                                 
          FORCE     EQUILIBRIUM NOT ACHIEVED WITHIN TOLERANCE.

 AVERAGE MOMENT                      0.00       TIME AVG. MOMENT      5.436E-02
                                                (FROM FORCE     FIELD)
 LARGEST RESIDUAL MOMENT           -3.958E-07   AT NODE          3   DOF  6
   INSTANCE:                                                                                 
 LARGEST INCREMENT OF ROTATION      1.207E-10   AT NODE          3   DOF  6
   INSTANCE: {assembly node}                                                                 
 LARGEST CORRECTION TO ROTATION     6.757E-14   AT NODE          3   DOF  6
   INSTANCE: {assembly node}                                                                 
          THERE IS ZERO MOMENT    EVERYWHERE

  NUMBER OF EQUATIONS =     55149     NUMBER OF RHS =    1
  NUMBER OF FLOATING PT. OPERATIONS =  1.36E+09

  USING THE DIRECT SOLVER WITH   6 PROCESSORS

     CHECK POINT   START OF SOLVER    

     CHECK POINT  END OF SOLVER       

       ELAPSED USER TIME (SEC)      =  0.80000    
       ELAPSED SYSTEM TIME (SEC)    =   0.0000    
       ELAPSED TOTAL CPU TIME (SEC) =  0.80000    
       ELAPSED WALLCLOCK TIME (SEC) =          1
  
     ASYNCHRONOUS TRACKING ELEMENT LOOP STARTED
  

               CONVERGENCE CHECKS FOR EQUILIBRIUM ITERATION     3

   MAX. PENETRATION ERROR -2.55585E-06 AT NODE SUBSTRATE-1.150 OF CONTACT PAIR 
   (ASSEMBLY__PICKEDSURF127,ASSEMBLY__PICKEDSURF126)
   MAX. CONTACT FORCE ERROR 1.27400E-03 AT NODE SCALE-1-LIN-5-1.11 OF CONTACT 
   PAIR (GENERAL_CONTACT_VERTICES_17,GENERAL_CONTACT_FACES_01)
          THE CONTACT CONSTRAINTS HAVE CONVERGED.

 AVERAGE FORCE                      4.672E-02   TIME AVG. FORCE       3.957E-02
 LARGEST RESIDUAL FORCE             5.055E-05   AT NODE        133   DOF  3
   INSTANCE: SCALE-1-LIN-14-1                                                                
 LARGEST INCREMENT OF DISP.         7.803E-02   AT NODE          4   DOF  2
   INSTANCE: SCALE-1-LIN-14-1                                                                
 LARGEST CORRECTION TO DISP.        4.804E-04   AT NODE          4   DOF  2
   INSTANCE: SCALE-1                                                                         
          THE FORCE     EQUILIBRIUM EQUATIONS HAVE CONVERGED

 AVERAGE MOMENT                      0.00       TIME AVG. MOMENT      5.436E-02
                                                (FROM FORCE     FIELD)
 LARGEST RESIDUAL MOMENT            1.786E-06   AT NODE          3   DOF  5
   INSTANCE:                                                                                 
 LARGEST INCREMENT OF ROTATION      1.207E-10   AT NODE          3   DOF  6
   INSTANCE: {assembly node}                                                                 
 LARGEST CORRECTION TO ROTATION     1.238E-15   AT NODE          2   DOF  6
   INSTANCE: {assembly node}                                                                 
          ALL ROTATION CORRECTIONS ARE ZERO
          TIME INCREMENT MAY NOW INCREASE TO    2.250E-02

 ITERATION SUMMARY FOR THE INCREMENT:   3 TOTAL ITERATIONS, OF WHICH
   0 ARE SEVERE DISCONTINUITY ITERATIONS AND  3 ARE EQUILIBRIUM ITERATIONS.

 TIME INCREMENT COMPLETED  1.500E-02,  FRACTION OF STEP COMPLETED  7.500E-04
 STEP TIME COMPLETED       4.500E-02,  TOTAL TIME COMPLETED        4.500E-02


  INCREMENT     5 STARTS. ATTEMPT NUMBER  1, TIME INCREMENT  2.250E-02
  
     ASYNCHRONOUS TRACKING ELEMENT LOOP STARTED
  

  NUMBER OF EQUATIONS =     55149     NUMBER OF RHS =    1
  NUMBER OF FLOATING PT. OPERATIONS =  1.36E+09

  USING THE DIRECT SOLVER WITH   6 PROCESSORS

     CHECK POINT   START OF SOLVER    

     CHECK POINT  END OF SOLVER       

       ELAPSED USER TIME (SEC)      =  0.40000    
       ELAPSED SYSTEM TIME (SEC)    =   0.0000    
       ELAPSED TOTAL CPU TIME (SEC) =  0.40000    
       ELAPSED WALLCLOCK TIME (SEC) =          0
  
     ASYNCHRONOUS TRACKING ELEMENT LOOP STARTED
  

               CONVERGENCE CHECKS FOR EQUILIBRIUM ITERATION     1

   MAX. PENETRATION ERROR -181.331E-06   AT NODE SUBSTRATE-1.158 OF CONTACT 
   PAIR (ASSEMBLY__PICKEDSURF127,ASSEMBLY__PICKEDSURF126)
   MAX. CONTACT FORCE ERROR 59.7734E-03  AT NODE SCALE-1-LIN-5-1.11 OF CONTACT 
   PAIR (GENERAL_CONTACT_VERTICES_17,GENERAL_CONTACT_FACES_01)
          THE ESTIMATED CONTACT FORCE ERROR IS OUTSIDE OF CONVERGENCE TOLERANCES.

 AVERAGE FORCE                      4.034E-02   TIME AVG. FORCE       3.972E-02
 LARGEST RESIDUAL FORCE             0.112       AT NODE        805   DOF  2
   INSTANCE: SCALE-1-LIN-5-1                                                                 
 LARGEST INCREMENT OF DISP.         6.742E-02   AT NODE          4   DOF  2
   INSTANCE: SCALE-1-LIN-14-1                                                                
 LARGEST CORRECTION TO DISP.       -4.962E-02   AT NODE          4   DOF  2
   INSTANCE: SCALE-1-LIN-14-1                                                                
          FORCE     EQUILIBRIUM NOT ACHIEVED WITHIN TOLERANCE.

 AVERAGE MOMENT                      0.00       TIME AVG. MOMENT      5.785E-02
                                                (FROM FORCE     FIELD)
 LARGEST RESIDUAL MOMENT           -2.534E-06   AT NODE          3   DOF  5
   INSTANCE:                                                                                 
 LARGEST INCREMENT OF ROTATION      8.940E-12   AT NODE          3   DOF  6
   INSTANCE: {assembly node}                                                                 
 LARGEST CORRECTION TO ROTATION    -1.721E-10   AT NODE          3   DOF  6
   INSTANCE: {assembly node}                                                                 
          ALL ROTATION CORRECTIONS ARE ZERO

  NUMBER OF EQUATIONS =     55149     NUMBER OF RHS =    1
  NUMBER OF FLOATING PT. OPERATIONS =  1.36E+09

  USING THE DIRECT SOLVER WITH   6 PROCESSORS

     CHECK POINT   START OF SOLVER    

     CHECK POINT  END OF SOLVER       

       ELAPSED USER TIME (SEC)      =  0.60000    
       ELAPSED SYSTEM TIME (SEC)    =   0.0000    
       ELAPSED TOTAL CPU TIME (SEC) =  0.60000    
       ELAPSED WALLCLOCK TIME (SEC) =          1
  
     ASYNCHRONOUS TRACKING ELEMENT LOOP STARTED
  

               CONVERGENCE CHECKS FOR EQUILIBRIUM ITERATION     2

   MAX. PENETRATION ERROR 43.4423E-06  AT NODE SUBSTRATE-1.392 OF CONTACT PAIR 
   (ASSEMBLY__PICKEDSURF127,ASSEMBLY__PICKEDSURF126)
   MAX. CONTACT FORCE ERROR -12.0343E-03  AT NODE SCALE-1-LIN-5-1.11 OF CONTACT 
   PAIR (GENERAL_CONTACT_VERTICES_17,GENERAL_CONTACT_FACES_01)
          THE CONTACT CONSTRAINTS HAVE CONVERGED.

 AVERAGE FORCE                      4.271E-02   TIME AVG. FORCE       4.020E-02
 LARGEST RESIDUAL FORCE            -2.063E-04   AT NODE        133   DOF  2
   INSTANCE: SCALE-1-LIN-14-1                                                                
 LARGEST INCREMENT OF DISP.         6.773E-02   AT NODE          4   DOF  2
   INSTANCE: SCALE-1-LIN-14-1                                                                
 LARGEST CORRECTION TO DISP.       -1.055E-03   AT NODE       1064   DOF  2
   INSTANCE: SCALE-1-LIN-14-1                                                                
          FORCE     EQUILIBRIUM NOT ACHIEVED WITHIN TOLERANCE.

 AVERAGE MOMENT                      0.00       TIME AVG. MOMENT      5.785E-02
                                                (FROM FORCE     FIELD)
 LARGEST RESIDUAL MOMENT           -1.697E-06   AT NODE          3   DOF  5
   INSTANCE:                                                                                 
 LARGEST INCREMENT OF ROTATION      8.945E-12   AT NODE          3   DOF  6
   INSTANCE: {assembly node}                                                                 
 LARGEST CORRECTION TO ROTATION     4.411E-15   AT NODE          3   DOF  6
   INSTANCE: {assembly node}                                                                 
          ALL ROTATION CORRECTIONS ARE ZERO

  NUMBER OF EQUATIONS =     55149     NUMBER OF RHS =    1
  NUMBER OF FLOATING PT. OPERATIONS =  1.36E+09

  USING THE DIRECT SOLVER WITH   6 PROCESSORS

     CHECK POINT   START OF SOLVER    

     CHECK POINT  END OF SOLVER       

       ELAPSED USER TIME (SEC)      =  0.50000    
       ELAPSED SYSTEM TIME (SEC)    =   0.0000    
       ELAPSED TOTAL CPU TIME (SEC) =  0.50000    
       ELAPSED WALLCLOCK TIME (SEC) =          0
  
     ASYNCHRONOUS TRACKING ELEMENT LOOP STARTED
  

               CONVERGENCE CHECKS FOR EQUILIBRIUM ITERATION     3

   MAX. PENETRATION ERROR -2.15026E-06 AT NODE SUBSTRATE-1.424 OF CONTACT PAIR 
   (ASSEMBLY__PICKEDSURF127,ASSEMBLY__PICKEDSURF126)
   MAX. CONTACT FORCE ERROR 1.71517E-03 AT NODE SCALE-1-LIN-5-1.11 OF CONTACT 
   PAIR (GENERAL_CONTACT_VERTICES_17,GENERAL_CONTACT_FACES_01)
          THE CONTACT CONSTRAINTS HAVE CONVERGED.

 AVERAGE FORCE                      4.272E-02   TIME AVG. FORCE       4.020E-02
 LARGEST RESIDUAL FORCE             1.893E-05   AT NODE        133   DOF  3
   INSTANCE: SCALE-1-LIN-14-1                                                                
 LARGEST INCREMENT OF DISP.         6.813E-02   AT NODE          4   DOF  2
   INSTANCE: SCALE-1-LIN-14-1                                                                
 LARGEST CORRECTION TO DISP.        4.176E-04   AT NODE          4   DOF  2
   INSTANCE: SCALE-1                                                                         
          THE FORCE     EQUILIBRIUM EQUATIONS HAVE CONVERGED

 AVERAGE MOMENT                      0.00       TIME AVG. MOMENT      5.785E-02
                                                (FROM FORCE     FIELD)
 LARGEST RESIDUAL MOMENT            1.948E-06   AT NODE          3   DOF  5
   INSTANCE:                                                                                 
 LARGEST INCREMENT OF ROTATION      8.945E-12   AT NODE          3   DOF  6
   INSTANCE: {assembly node}                                                                 
 LARGEST CORRECTION TO ROTATION    -2.570E-16   AT NODE          3   DOF  5
   INSTANCE: {assembly node}                                                                 
          ALL ROTATION CORRECTIONS ARE ZERO
          TIME INCREMENT MAY NOW INCREASE TO    3.375E-02

 ITERATION SUMMARY FOR THE INCREMENT:   3 TOTAL ITERATIONS, OF WHICH
   0 ARE SEVERE DISCONTINUITY ITERATIONS AND  3 ARE EQUILIBRIUM ITERATIONS.

 TIME INCREMENT COMPLETED  2.250E-02,  FRACTION OF STEP COMPLETED  1.125E-03
 STEP TIME COMPLETED       6.750E-02,  TOTAL TIME COMPLETED        6.750E-02


  INCREMENT     6 STARTS. ATTEMPT NUMBER  1, TIME INCREMENT  3.375E-02
  
     ASYNCHRONOUS TRACKING ELEMENT LOOP STARTED
  

  NUMBER OF EQUATIONS =     55149     NUMBER OF RHS =    1
  NUMBER OF FLOATING PT. OPERATIONS =  1.36E+09

  USING THE DIRECT SOLVER WITH   6 PROCESSORS

     CHECK POINT   START OF SOLVER    

     CHECK POINT  END OF SOLVER       

       ELAPSED USER TIME (SEC)      =  0.40000    
       ELAPSED SYSTEM TIME (SEC)    =   0.0000    
       ELAPSED TOTAL CPU TIME (SEC) =  0.40000    
       ELAPSED WALLCLOCK TIME (SEC) =          0
  
     ASYNCHRONOUS TRACKING ELEMENT LOOP STARTED
  

               CONVERGENCE CHECKS FOR EQUILIBRIUM ITERATION     1

   MAX. PENETRATION ERROR -212.211E-06   AT NODE SUBSTRATE-1.158 OF CONTACT 
   PAIR (ASSEMBLY__PICKEDSURF127,ASSEMBLY__PICKEDSURF126)
   MAX. CONTACT FORCE ERROR 86.8883E-03  AT NODE SCALE-1-LIN-5-1.11 OF CONTACT 
   PAIR (GENERAL_CONTACT_VERTICES_17,GENERAL_CONTACT_FACES_01)
          THE ESTIMATED CONTACT FORCE ERROR IS OUTSIDE OF CONVERGENCE TOLERANCES.

 AVERAGE FORCE                      3.608E-02   TIME AVG. FORCE       3.951E-02
 LARGEST RESIDUAL FORCE             8.374E-02   AT NODE        800   DOF  2
   INSTANCE: SCALE-1-LIN-14-1                                                                
 LARGEST INCREMENT OF DISP.         5.876E-02   AT NODE         47   DOF  2
   INSTANCE: SCALE-1-LIN-14-1                                                                
 LARGEST CORRECTION TO DISP.       -4.745E-02   AT NODE          4   DOF  2
   INSTANCE: SCALE-1-LIN-14-1                                                                
          FORCE     EQUILIBRIUM NOT ACHIEVED WITHIN TOLERANCE.

 AVERAGE MOMENT                      0.00       TIME AVG. MOMENT      5.877E-02
                                                (FROM FORCE     FIELD)
 LARGEST RESIDUAL MOMENT            2.935E-06   AT NODE          3   DOF  5
   INSTANCE:                                                                                 
 LARGEST INCREMENT OF ROTATION      5.854E-13   AT NODE          3   DOF  6
   INSTANCE: {assembly node}                                                                 
 LARGEST CORRECTION TO ROTATION    -1.283E-11   AT NODE          3   DOF  6
   INSTANCE: {assembly node}                                                                 
          ALL ROTATION CORRECTIONS ARE ZERO

  NUMBER OF EQUATIONS =     55149     NUMBER OF RHS =    1
  NUMBER OF FLOATING PT. OPERATIONS =  1.36E+09

  USING THE DIRECT SOLVER WITH   6 PROCESSORS

     CHECK POINT   START OF SOLVER    

     CHECK POINT  END OF SOLVER       

       ELAPSED USER TIME (SEC)      =  0.50000    
       ELAPSED SYSTEM TIME (SEC)    =   0.0000    
       ELAPSED TOTAL CPU TIME (SEC) =  0.50000    
       ELAPSED WALLCLOCK TIME (SEC) =          0
  
     ASYNCHRONOUS TRACKING ELEMENT LOOP STARTED
  

               CONVERGENCE CHECKS FOR EQUILIBRIUM ITERATION     2

   MAX. PENETRATION ERROR 38.4462E-06  AT NODE SUBSTRATE-1.424 OF CONTACT PAIR 
   (ASSEMBLY__PICKEDSURF127,ASSEMBLY__PICKEDSURF126)
   MAX. CONTACT FORCE ERROR -14.6171E-03  AT NODE SCALE-1-LIN-5-1.11 OF CONTACT 
   PAIR (GENERAL_CONTACT_VERTICES_17,GENERAL_CONTACT_FACES_01)
          THE CONTACT CONSTRAINTS HAVE CONVERGED.

 AVERAGE FORCE                      3.916E-02   TIME AVG. FORCE       4.002E-02
 LARGEST RESIDUAL FORCE            -1.237E-04   AT NODE        133   DOF  2
   INSTANCE: SCALE-1-LIN-14-1                                                                
 LARGEST INCREMENT OF DISP.         5.876E-02   AT NODE         47   DOF  2
   INSTANCE: SCALE-1-LIN-14-1                                                                
 LARGEST CORRECTION TO DISP.        1.032E-03   AT NODE          1   DOF  2
   INSTANCE: SCALE-1-LIN-14-1                                                                
 ESTIMATE OF DISP.    CORRECTION   -1.470E-06
 FORCE     EQUILIB. ACCEPTED BASED ON SMALL RESIDUAL AND ESTIMATED CORRECTION

 AVERAGE MOMENT                      0.00       TIME AVG. MOMENT      5.877E-02
                                                (FROM FORCE     FIELD)
 LARGEST RESIDUAL MOMENT            2.251E-06   AT NODE          3   DOF  5
   INSTANCE:                                                                                 
 LARGEST INCREMENT OF ROTATION      5.857E-13   AT NODE          3   DOF  6
   INSTANCE: {assembly node}                                                                 
 LARGEST CORRECTION TO ROTATION    -9.631E-16   AT NODE          3   DOF  5
   INSTANCE: {assembly node}                                                                 
          ALL ROTATION CORRECTIONS ARE ZERO
          TIME INCREMENT MAY NOW INCREASE TO    5.063E-02

 ITERATION SUMMARY FOR THE INCREMENT:   2 TOTAL ITERATIONS, OF WHICH
   0 ARE SEVERE DISCONTINUITY ITERATIONS AND  2 ARE EQUILIBRIUM ITERATIONS.

 TIME INCREMENT COMPLETED  3.375E-02,  FRACTION OF STEP COMPLETED  1.688E-03
 STEP TIME COMPLETED       0.101    ,  TOTAL TIME COMPLETED        0.101    


  INCREMENT     7 STARTS. ATTEMPT NUMBER  1, TIME INCREMENT  5.063E-02
  
     ASYNCHRONOUS TRACKING ELEMENT LOOP STARTED
  

  NUMBER OF EQUATIONS =     55149     NUMBER OF RHS =    1
  NUMBER OF FLOATING PT. OPERATIONS =  1.36E+09

  USING THE DIRECT SOLVER WITH   6 PROCESSORS

     CHECK POINT   START OF SOLVER    

     CHECK POINT  END OF SOLVER       

       ELAPSED USER TIME (SEC)      =  0.30000    
       ELAPSED SYSTEM TIME (SEC)    =   0.0000    
       ELAPSED TOTAL CPU TIME (SEC) =  0.30000    
       ELAPSED WALLCLOCK TIME (SEC) =          0
  
     ASYNCHRONOUS TRACKING ELEMENT LOOP STARTED
  

               CONVERGENCE CHECKS FOR EQUILIBRIUM ITERATION     1

   MAX. PENETRATION ERROR -211.963E-06   AT NODE SUBSTRATE-1.158 OF CONTACT 
   PAIR (ASSEMBLY__PICKEDSURF127,ASSEMBLY__PICKEDSURF126)
   MAX. CONTACT FORCE ERROR 94.5000E-03  AT NODE SCALE-1-LIN-5-1.11 OF CONTACT 
   PAIR (GENERAL_CONTACT_VERTICES_17,GENERAL_CONTACT_FACES_01)
          THE ESTIMATED CONTACT FORCE ERROR IS OUTSIDE OF CONVERGENCE TOLERANCES.

 AVERAGE FORCE                      3.528E-02   TIME AVG. FORCE       3.935E-02
 LARGEST RESIDUAL FORCE             5.200E-02   AT NODE        743   DOF  2
   INSTANCE: SCALE-1-LIN-14-1                                                                
 LARGEST INCREMENT OF DISP.        -6.851E-02   AT NODE          9   DOF  2
   INSTANCE: SCALE-1-LIN-5-1                                                                 
 LARGEST CORRECTION TO DISP.       -3.705E-02   AT NODE          4   DOF  2
   INSTANCE: SCALE-1-LIN-14-1                                                                
          FORCE     EQUILIBRIUM NOT ACHIEVED WITHIN TOLERANCE.

 AVERAGE MOMENT                      0.00       TIME AVG. MOMENT      5.852E-02
                                                (FROM FORCE     FIELD)
 LARGEST RESIDUAL MOMENT           -7.789E-06   AT NODE          3   DOF  5
   INSTANCE:                                                                                 
 LARGEST INCREMENT OF ROTATION      3.659E-14   AT NODE          3   DOF  6
   INSTANCE: {assembly node}                                                                 
 LARGEST CORRECTION TO ROTATION    -8.419E-13   AT NODE          3   DOF  6
   INSTANCE: {assembly node}                                                                 
          ALL ROTATION CORRECTIONS ARE ZERO

  NUMBER OF EQUATIONS =     55149     NUMBER OF RHS =    1
  NUMBER OF FLOATING PT. OPERATIONS =  1.36E+09

  USING THE DIRECT SOLVER WITH   6 PROCESSORS

     CHECK POINT   START OF SOLVER    

     CHECK POINT  END OF SOLVER       

       ELAPSED USER TIME (SEC)      =  0.50000    
       ELAPSED SYSTEM TIME (SEC)    =   0.0000    
       ELAPSED TOTAL CPU TIME (SEC) =  0.50000    
       ELAPSED WALLCLOCK TIME (SEC) =          0
  
     ASYNCHRONOUS TRACKING ELEMENT LOOP STARTED
  

               CONVERGENCE CHECKS FOR EQUILIBRIUM ITERATION     2

   MAX. PENETRATION ERROR 33.9519E-06  AT NODE SUBSTRATE-1.424 OF CONTACT PAIR 
   (ASSEMBLY__PICKEDSURF127,ASSEMBLY__PICKEDSURF126)
   MAX. CONTACT FORCE ERROR -12.2883E-03  AT NODE SCALE-1-LIN-5-1.11 OF CONTACT 
   PAIR (GENERAL_CONTACT_VERTICES_17,GENERAL_CONTACT_FACES_01)
          THE CONTACT CONSTRAINTS HAVE CONVERGED.

 AVERAGE FORCE                      3.765E-02   TIME AVG. FORCE       3.968E-02
 LARGEST RESIDUAL FORCE             1.223E-04   AT NODE         70   DOF  2
   INSTANCE: SCALE-1-LIN-5-1                                                                 
 LARGEST INCREMENT OF DISP.        -6.881E-02   AT NODE          9   DOF  2
   INSTANCE: SCALE-1-LIN-5-1                                                                 
 LARGEST CORRECTION TO DISP.       -1.438E-03   AT NODE          4   DOF  2
   INSTANCE: SCALE-1-LIN-5-1                                                                 
 ESTIMATE OF DISP.    CORRECTION   -1.862E-06
 FORCE     EQUILIB. ACCEPTED BASED ON SMALL RESIDUAL AND ESTIMATED CORRECTION

 AVERAGE MOMENT                      0.00       TIME AVG. MOMENT      5.852E-02
                                                (FROM FORCE     FIELD)
 LARGEST RESIDUAL MOMENT            3.509E-06   AT NODE          3   DOF  5
   INSTANCE:                                                                                 
 LARGEST INCREMENT OF ROTATION      3.718E-14   AT NODE          3   DOF  6
   INSTANCE: {assembly node}                                                                 
 LARGEST CORRECTION TO ROTATION    -6.014E-16   AT NODE          3   DOF  5
   INSTANCE: {assembly node}                                                                 
          ALL ROTATION CORRECTIONS ARE ZERO
          TIME INCREMENT MAY NOW INCREASE TO    7.594E-02

 ITERATION SUMMARY FOR THE INCREMENT:   2 TOTAL ITERATIONS, OF WHICH
   0 ARE SEVERE DISCONTINUITY ITERATIONS AND  2 ARE EQUILIBRIUM ITERATIONS.

 TIME INCREMENT COMPLETED  5.063E-02,  FRACTION OF STEP COMPLETED  2.531E-03
 STEP TIME COMPLETED       0.152    ,  TOTAL TIME COMPLETED        0.152    


  INCREMENT     8 STARTS. ATTEMPT NUMBER  1, TIME INCREMENT  7.594E-02
  
     ASYNCHRONOUS TRACKING ELEMENT LOOP STARTED
  

                    1 SEVERE DISCONTINUITIES OCCURRED DURING INCREMENT ATTEMPT INITIALIZATION.
[...]
 LARGEST CORRECTION TO ROTATION     2.585E-18   AT NODE          3   DOF  5
   INSTANCE: {assembly node}                                                                 
          THERE IS ZERO MOMENT    EVERYWHERE

  NUMBER OF EQUATIONS =     55149     NUMBER OF RHS =    1
  NUMBER OF FLOATING PT. OPERATIONS =  1.33E+09

  USING THE DIRECT SOLVER WITH   6 PROCESSORS

     CHECK POINT   START OF SOLVER    

     CHECK POINT  END OF SOLVER       

       ELAPSED USER TIME (SEC)      =  0.40000    
       ELAPSED SYSTEM TIME (SEC)    =   0.0000    
       ELAPSED TOTAL CPU TIME (SEC) =  0.40000    
       ELAPSED WALLCLOCK TIME (SEC) =          0
  
     ASYNCHRONOUS TRACKING ELEMENT LOOP STARTED
  

                   23 SEVERE DISCONTINUITIES OCCURRED DURING THIS ITERATION.
                   11 POINTS CHANGED FROM OPEN TO CLOSED
                    8 POINTS CHANGED FROM CLOSED TO OPEN
                    3 POINTS CHANGED FROM SLIPPING TO STICKING
                    1 POINTS CHANGED FROM STICKING TO SLIPPING

               CONVERGENCE CHECKS FOR SEVERE DISCONTINUITY ITERATION     4

   MAX. PENETRATION ERROR 59.3470E-06  AT NODE SCALE-1-LIN-8-1.559 OF CONTACT 
   PAIR (ASSEMBLY__PICKEDSURF119,ASSEMBLY__PICKEDSURF119)
   MAX. CONTACT FORCE ERROR 96.6003E-03  AT NODE SCALE-1-LIN-8-1.559 OF CONTACT 
   PAIR (ASSEMBLY__PICKEDSURF119,ASSEMBLY__PICKEDSURF119)
          THE CONTACT CONSTRAINT ERRORS ARE WITHIN THE TOLERANCES.

 AVERAGE FORCE                      9.727E-02   TIME AVG. FORCE       0.217    
 LARGEST RESIDUAL FORCE            -4.834E-03   AT NODE        870   DOF  2
   INSTANCE: SCALE-1-LIN-9-1                                                                 
 LARGEST INCREMENT OF DISP.        -2.630E-02   AT NODE          9   DOF  2
   INSTANCE: SCALE-1-LIN-6-1                                                                 
 LARGEST CORRECTION TO DISP.       -1.231E-03   AT NODE          4   DOF  1
   INSTANCE: SCALE-1-LIN-6-1                                                                 
          FORCE     EQUILIBRIUM NOT ACHIEVED WITHIN TOLERANCE.

 AVERAGE MOMENT                      0.00       TIME AVG. MOMENT      0.319    
                                                (FROM FORCE     FIELD)
 LARGEST RESIDUAL MOMENT            1.564E-08   AT NODE          3   DOF  5
   INSTANCE:                                                                                 
 LARGEST INCREMENT OF ROTATION      4.772E-16   AT NODE          3   DOF  5
   INSTANCE: {assembly node}                                                                 
 LARGEST CORRECTION TO ROTATION     2.585E-18   AT NODE          3   DOF  5
   INSTANCE: {assembly node}                                                                 
          THERE IS ZERO MOMENT    EVERYWHERE

  NUMBER OF EQUATIONS =     55149     NUMBER OF RHS =    1
  NUMBER OF FLOATING PT. OPERATIONS =  1.50E+09

  USING THE DIRECT SOLVER WITH   6 PROCESSORS

     CHECK POINT   START OF SOLVER    

     CHECK POINT  END OF SOLVER       

       ELAPSED USER TIME (SEC)      =  0.60000    
       ELAPSED SYSTEM TIME (SEC)    =   0.0000    
       ELAPSED TOTAL CPU TIME (SEC) =  0.60000    
       ELAPSED WALLCLOCK TIME (SEC) =          0
  
     ASYNCHRONOUS TRACKING ELEMENT LOOP STARTED
  

                   13 SEVERE DISCONTINUITIES OCCURRED DURING THIS ITERATION.
                    3 POINTS CHANGED FROM OPEN TO CLOSED
                    9 POINTS CHANGED FROM CLOSED TO OPEN
                    1 POINTS CHANGED FROM STICKING TO SLIPPING

               CONVERGENCE CHECKS FOR SEVERE DISCONTINUITY ITERATION     5

   MAX. PENETRATION ERROR 36.4690E-06  AT NODE SCALE-1-LIN-5-1.11 OF CONTACT 
   PAIR (GENERAL_CONTACT_EDGES_17,GENERAL_CONTACT_FACES_01)
   MAX. CONTACT FORCE ERROR 35.8725E-03  AT NODE SCALE-1-LIN-5-1.11 OF CONTACT 
   PAIR (GENERAL_CONTACT_EDGES_17,GENERAL_CONTACT_FACES_01)
          THE CONTACT CONSTRAINT ERRORS ARE WITHIN THE TOLERANCES.

 AVERAGE FORCE                      9.721E-02   TIME AVG. FORCE       0.217    
 LARGEST RESIDUAL FORCE             1.666E-02   AT NODE        598   DOF  2
   INSTANCE: SCALE-1-LIN-8-1                                                                 
 LARGEST INCREMENT OF DISP.        -2.634E-02   AT NODE          9   DOF  2
   INSTANCE: SCALE-1-LIN-6-1                                                                 
 LARGEST CORRECTION TO DISP.       -2.063E-03   AT NODE         94   DOF  2
   INSTANCE: SCALE-1-LIN-7-1                                                                 
          FORCE     EQUILIBRIUM NOT ACHIEVED WITHIN TOLERANCE.

 AVERAGE MOMENT                      0.00       TIME AVG. MOMENT      0.319    
                                                (FROM FORCE     FIELD)
 LARGEST RESIDUAL MOMENT            1.564E-08   AT NODE          3   DOF  5
   INSTANCE:                                                                                 
 LARGEST INCREMENT OF ROTATION      4.798E-16   AT NODE          3   DOF  5
   INSTANCE: {assembly node}                                                                 
 LARGEST CORRECTION TO ROTATION     2.585E-18   AT NODE          3   DOF  5
   INSTANCE: {assembly node}                                                                 
          THERE IS ZERO MOMENT    EVERYWHERE

  NUMBER OF EQUATIONS =     55149     NUMBER OF RHS =    1
  NUMBER OF FLOATING PT. OPERATIONS =  1.52E+09

  USING THE DIRECT SOLVER WITH   6 PROCESSORS

     CHECK POINT   START OF SOLVER    

     CHECK POINT  END OF SOLVER       

       ELAPSED USER TIME (SEC)      =  0.60000    
       ELAPSED SYSTEM TIME (SEC)    =   0.0000    
       ELAPSED TOTAL CPU TIME (SEC) =  0.60000    
       ELAPSED WALLCLOCK TIME (SEC) =          0
  
     ASYNCHRONOUS TRACKING ELEMENT LOOP STARTED
  

                   14 SEVERE DISCONTINUITIES OCCURRED DURING THIS ITERATION.
                    7 POINTS CHANGED FROM OPEN TO CLOSED
                    6 POINTS CHANGED FROM CLOSED TO OPEN
                    1 POINTS CHANGED FROM STICKING TO SLIPPING

               CONVERGENCE CHECKS FOR SEVERE DISCONTINUITY ITERATION     6

   MAX. PENETRATION ERROR -24.4842E-06  AT NODE SCALE-1-LIN-5-1.11 OF CONTACT 
   PAIR (GENERAL_CONTACT_EDGES_17,GENERAL_CONTACT_FACES_01)
   MAX. CONTACT FORCE ERROR 38.0849E-03  AT NODE SCALE-1-LIN-8-1.599 OF CONTACT 
   PAIR (ASSEMBLY__PICKEDSURF119,ASSEMBLY__PICKEDSURF119)
          THE CONTACT CONSTRAINT ERRORS ARE WITHIN THE TOLERANCES.

 AVERAGE FORCE                      9.722E-02   TIME AVG. FORCE       0.217    
 LARGEST RESIDUAL FORCE             4.076E-03   AT NODE        619   DOF  2
   INSTANCE: SCALE-1-LIN-8-1                                                                 
 LARGEST INCREMENT OF DISP.        -2.634E-02   AT NODE          9   DOF  2
   INSTANCE: SCALE-1-LIN-6-1                                                                 
 LARGEST CORRECTION TO DISP.        2.656E-04   AT NODE         11   DOF  1
   INSTANCE: SCALE-1-LIN-5-1                                                                 
          FORCE     EQUILIBRIUM NOT ACHIEVED WITHIN TOLERANCE.

 AVERAGE MOMENT                      0.00       TIME AVG. MOMENT      0.319    
                                                (FROM FORCE     FIELD)
 LARGEST RESIDUAL MOMENT            1.564E-08   AT NODE          3   DOF  5
   INSTANCE:                                                                                 
 LARGEST INCREMENT OF ROTATION      4.823E-16   AT NODE          3   DOF  5
   INSTANCE: {assembly node}                                                                 
 LARGEST CORRECTION TO ROTATION     2.585E-18   AT NODE          3   DOF  5
   INSTANCE: {assembly node}                                                                 
          THERE IS ZERO MOMENT    EVERYWHERE

  NUMBER OF EQUATIONS =     55149     NUMBER OF RHS =    1
  NUMBER OF FLOATING PT. OPERATIONS =  1.64E+09

  USING THE DIRECT SOLVER WITH   6 PROCESSORS

     CHECK POINT   START OF SOLVER    

     CHECK POINT  END OF SOLVER       

       ELAPSED USER TIME (SEC)      =  0.50000    
       ELAPSED SYSTEM TIME (SEC)    =   0.0000    
       ELAPSED TOTAL CPU TIME (SEC) =  0.50000    
       ELAPSED WALLCLOCK TIME (SEC) =          0
  
     ASYNCHRONOUS TRACKING ELEMENT LOOP STARTED
  

                    7 SEVERE DISCONTINUITIES OCCURRED DURING THIS ITERATION.
                    1 POINTS CHANGED FROM OPEN TO CLOSED
                    5 POINTS CHANGED FROM CLOSED TO OPEN
                    1 POINTS CHANGED FROM STICKING TO SLIPPING

               CONVERGENCE CHECKS FOR SEVERE DISCONTINUITY ITERATION     7

   MAX. PENETRATION ERROR 11.8623E-06  AT NODE SCALE-1-LIN-5-1.11 OF CONTACT 
   PAIR (GENERAL_CONTACT_EDGES_17,GENERAL_CONTACT_FACES_01)
   MAX. CONTACT FORCE ERROR -16.3122E-03  AT NODE SCALE-1-LIN-9-1.833 OF 
   CONTACT PAIR (ASSEMBLY__PICKEDSURF119,ASSEMBLY__PICKEDSURF119)
          THE CONTACT CONSTRAINT ERRORS ARE WITHIN THE TOLERANCES.

 AVERAGE FORCE                      9.725E-02   TIME AVG. FORCE       0.217    
 LARGEST RESIDUAL FORCE            -9.430E-03   AT NODE        833   DOF  2
   INSTANCE: SCALE-1-LIN-9-1                                                                 
 LARGEST INCREMENT OF DISP.        -2.634E-02   AT NODE          9   DOF  2
   INSTANCE: SCALE-1-LIN-6-1                                                                 
 LARGEST CORRECTION TO DISP.        2.469E-04   AT NODE         11   DOF  3
   INSTANCE: SCALE-1-LIN-8-1                                                                 
          FORCE     EQUILIBRIUM NOT ACHIEVED WITHIN TOLERANCE.

 AVERAGE MOMENT                      0.00       TIME AVG. MOMENT      0.319    
                                                (FROM FORCE     FIELD)
 LARGEST RESIDUAL MOMENT            1.564E-08   AT NODE          3   DOF  5
   INSTANCE:                                                                                 
 LARGEST INCREMENT OF ROTATION      4.849E-16   AT NODE          3   DOF  5
   INSTANCE: {assembly node}                                                                 
 LARGEST CORRECTION TO ROTATION     2.585E-18   AT NODE          3   DOF  5
   INSTANCE: {assembly node}                                                                 
          THERE IS ZERO MOMENT    EVERYWHERE

  NUMBER OF EQUATIONS =     55149     NUMBER OF RHS =    1
  NUMBER OF FLOATING PT. OPERATIONS =  1.64E+09

  USING THE DIRECT SOLVER WITH   6 PROCESSORS

     CHECK POINT   START OF SOLVER    

     CHECK POINT  END OF SOLVER       

       ELAPSED USER TIME (SEC)      =  0.70000    
       ELAPSED SYSTEM TIME (SEC)    =   0.0000    
       ELAPSED TOTAL CPU TIME (SEC) =  0.70000    
       ELAPSED WALLCLOCK TIME (SEC) =          0
  
     ASYNCHRONOUS TRACKING ELEMENT LOOP STARTED
  

                    7 SEVERE DISCONTINUITIES OCCURRED DURING THIS ITERATION.
                    4 POINTS CHANGED FROM OPEN TO CLOSED
                    3 POINTS CHANGED FROM CLOSED TO OPEN

               CONVERGENCE CHECKS FOR SEVERE DISCONTINUITY ITERATION     8

   MAX. PENETRATION ERROR 20.0716E-06  AT NODE SCALE-1-LIN-9-1.176 OF CONTACT 
   PAIR (ASSEMBLY__PICKEDSURF119,ASSEMBLY__PICKEDSURF119)
   MAX. CONTACT FORCE ERROR 32.6460E-03  AT NODE SCALE-1-LIN-9-1.176 OF CONTACT 
   PAIR (ASSEMBLY__PICKEDSURF119,ASSEMBLY__PICKEDSURF119)
          THE CONTACT CONSTRAINT ERRORS ARE WITHIN THE TOLERANCES.

 AVERAGE FORCE                      9.726E-02   TIME AVG. FORCE       0.217    
 LARGEST RESIDUAL FORCE             3.568E-03   AT NODE        619   DOF  2
   INSTANCE: SCALE-1-LIN-8-1                                                                 
 LARGEST INCREMENT OF DISP.        -2.635E-02   AT NODE          9   DOF  2
   INSTANCE: SCALE-1-LIN-6-1                                                                 
 LARGEST CORRECTION TO DISP.        2.276E-04   AT NODE          9   DOF  1
   INSTANCE: SCALE-1-LIN-8-1                                                                 
          FORCE     EQUILIBRIUM NOT ACHIEVED WITHIN TOLERANCE.

 AVERAGE MOMENT                      0.00       TIME AVG. MOMENT      0.319    
                                                (FROM FORCE     FIELD)
 LARGEST RESIDUAL MOMENT            1.564E-08   AT NODE          3   DOF  5
   INSTANCE:                                                                                 
 LARGEST INCREMENT OF ROTATION      4.875E-16   AT NODE          3   DOF  5
   INSTANCE: {assembly node}                                                                 
 LARGEST CORRECTION TO ROTATION     2.585E-18   AT NODE          3   DOF  5
   INSTANCE: {assembly node}                                                                 
          THERE IS ZERO MOMENT    EVERYWHERE

  NUMBER OF EQUATIONS =     55149     NUMBER OF RHS =    1
  NUMBER OF FLOATING PT. OPERATIONS =  1.49E+09

  USING THE DIRECT SOLVER WITH   6 PROCESSORS

     CHECK POINT   START OF SOLVER    

     CHECK POINT  END OF SOLVER       

       ELAPSED USER TIME (SEC)      =  0.50000    
       ELAPSED SYSTEM TIME (SEC)    =   0.0000    
       ELAPSED TOTAL CPU TIME (SEC) =  0.50000    
       ELAPSED WALLCLOCK TIME (SEC) =          0
  
     ASYNCHRONOUS TRACKING ELEMENT LOOP STARTED
  

                    5 SEVERE DISCONTINUITIES OCCURRED DURING THIS ITERATION.
                    1 POINTS CHANGED FROM OPEN TO CLOSED
                    3 POINTS CHANGED FROM CLOSED TO OPEN
                    1 POINTS CHANGED FROM STICKING TO SLIPPING

               CONVERGENCE CHECKS FOR SEVERE DISCONTINUITY ITERATION     9

   MAX. PENETRATION ERROR 3.79960E-06 AT NODE SCALE-1-LIN-5-1.11 OF CONTACT 
   PAIR (GENERAL_CONTACT_EDGES_17,GENERAL_CONTACT_FACES_01)
   MAX. CONTACT FORCE ERROR 8.32387E-03 AT NODE SCALE-1-LIN-8-1.924 OF CONTACT 
   PAIR (ASSEMBLY__PICKEDSURF119,ASSEMBLY__PICKEDSURF119)
          THE CONTACT CONSTRAINT ERRORS ARE WITHIN THE TOLERANCES.

 AVERAGE FORCE                      9.724E-02   TIME AVG. FORCE       0.217    
 LARGEST RESIDUAL FORCE             1.835E-03   AT NODE        599   DOF  2
   INSTANCE: SCALE-1-LIN-8-1                                                                 
 LARGEST INCREMENT OF DISP.        -2.634E-02   AT NODE          9   DOF  2
   INSTANCE: SCALE-1-LIN-6-1                                                                 
 LARGEST CORRECTION TO DISP.        1.766E-04   AT NODE         10   DOF  3
   INSTANCE: SCALE-1-LIN-8-1                                                                 
          FORCE     EQUILIBRIUM NOT ACHIEVED WITHIN TOLERANCE.

 AVERAGE MOMENT                      0.00       TIME AVG. MOMENT      0.319    
                                                (FROM FORCE     FIELD)
 LARGEST RESIDUAL MOMENT            1.564E-08   AT NODE          3   DOF  5
   INSTANCE:                                                                                 
 LARGEST INCREMENT OF ROTATION      4.901E-16   AT NODE          3   DOF  5
   INSTANCE: {assembly node}                                                                 
 LARGEST CORRECTION TO ROTATION     2.585E-18   AT NODE          3   DOF  5
   INSTANCE: {assembly node}                                                                 
          THERE IS ZERO MOMENT    EVERYWHERE

  NUMBER OF EQUATIONS =     55149     NUMBER OF RHS =    1
  NUMBER OF FLOATING PT. OPERATIONS =  1.60E+09

  USING THE DIRECT SOLVER WITH   6 PROCESSORS

     CHECK POINT   START OF SOLVER    

     CHECK POINT  END OF SOLVER       

       ELAPSED USER TIME (SEC)      =  0.50000    
       ELAPSED SYSTEM TIME (SEC)    =   0.0000    
       ELAPSED TOTAL CPU TIME (SEC) =  0.50000    
       ELAPSED WALLCLOCK TIME (SEC) =          0
  
     ASYNCHRONOUS TRACKING ELEMENT LOOP STARTED
  

                    2 SEVERE DISCONTINUITIES OCCURRED DURING THIS ITERATION.
                    1 POINTS CHANGED FROM OPEN TO CLOSED
                    1 POINTS CHANGED FROM CLOSED TO OPEN

               CONVERGENCE CHECKS FOR SEVERE DISCONTINUITY ITERATION    10

   MAX. PENETRATION ERROR -1.63835E-06 AT NODE SUBSTRATE-1.437 OF CONTACT PAIR 
   (ASSEMBLY__PICKEDSURF127,ASSEMBLY__PICKEDSURF126)
   MAX. CONTACT FORCE ERROR 1.96004E-03 AT NODE SCALE-1-LIN-9-1.832 OF CONTACT 
   PAIR (ASSEMBLY__PICKEDSURF119,ASSEMBLY__PICKEDSURF119)
          THE CONTACT CONSTRAINT ERRORS ARE WITHIN THE TOLERANCES.

 AVERAGE FORCE                      9.725E-02   TIME AVG. FORCE       0.217    
 LARGEST RESIDUAL FORCE            -4.466E-04   AT NODE        852   DOF  2
   INSTANCE: SCALE-1-LIN-9-1                                                                 
 LARGEST INCREMENT OF DISP.        -2.634E-02   AT NODE          9   DOF  2
   INSTANCE: SCALE-1-LIN-6-1                                                                 
 LARGEST CORRECTION TO DISP.       -1.587E-04   AT NODE          9   DOF  1
   INSTANCE: SCALE-1-LIN-8-1                                                                 
          THE FORCE     EQUILIBRIUM EQUATIONS HAVE CONVERGED

 AVERAGE MOMENT                      0.00       TIME AVG. MOMENT      0.319    
                                                (FROM FORCE     FIELD)
 LARGEST RESIDUAL MOMENT            1.564E-08   AT NODE          3   DOF  5
   INSTANCE:                                                                                 
 LARGEST INCREMENT OF ROTATION      4.927E-16   AT NODE          3   DOF  5
   INSTANCE: {assembly node}                                                                 
 LARGEST CORRECTION TO ROTATION     2.585E-18   AT NODE          3   DOF  5
   INSTANCE: {assembly node}                                                                 
          THERE IS ZERO MOMENT    EVERYWHERE
          TIME INCREMENT MAY NOW INCREASE TO    4.514E-02

 ITERATION SUMMARY FOR THE INCREMENT:  10 TOTAL ITERATIONS, OF WHICH
  10 ARE SEVERE DISCONTINUITY ITERATIONS AND  0 ARE EQUILIBRIUM ITERATIONS.

 TIME INCREMENT COMPLETED  3.010E-02,  FRACTION OF STEP COMPLETED  4.788E-02
 STEP TIME COMPLETED        2.87    ,  TOTAL TIME COMPLETED         2.87    
 

 ***ERROR: TOO MANY INCREMENTS NEEDED TO COMPLETE THE STEP

 ***ERROR: THE ANALYSIS HAS BEEN TERMINATED DUE TO PREVIOUS ERRORS. ALL OUTPUT 
           REQUESTS HAVE BEEN WRITTEN FOR THE LAST CONVERGED INCREMENT.



     ANALYSIS SUMMARY:
     TOTAL OF        100  INCREMENTS
                      22  CUTBACKS IN AUTOMATIC INCREMENTATION
                     835  ITERATIONS INCLUDING CONTACT ITERATIONS IF PRESENT
                     835  PASSES THROUGH THE EQUATION SOLVER OF WHICH 
                     835  INVOLVE MATRIX DECOMPOSITION, INCLUDING
                       0  DECOMPOSITION(S) OF THE MASS MATRIX
                       1  REORDERING OF EQUATIONS TO MINIMIZE WAVEFRONT
                       0  ADDITIONAL RESIDUAL EVALUATIONS FOR LINE SEARCHES
                       0  ADDITIONAL OPERATOR EVALUATIONS FOR LINE SEARCHES
                     170  WARNING MESSAGES DURING USER INPUT PROCESSING
                       9  WARNING MESSAGES DURING ANALYSIS
                       0  ANALYSIS WARNINGS ARE NUMERICAL PROBLEM MESSAGES
                       3  ANALYSIS WARNINGS ARE NEGATIVE EIGENVALUE MESSAGES
                       3  ERROR MESSAGES



     JOB TIME SUMMARY
       USER TIME (SEC)      =   13340.    
       SYSTEM TIME (SEC)    =   360.50    
       TOTAL CPU TIME (SEC) =   13701.    
       WALLCLOCK TIME (SEC) =       3692
