*Heading
** Job name: Job-1 Model name: Model-1
** Generated by: Abaqus/CAE 2020
*Preprint, echo=NO, model=NO, history=NO, contact=NO
**
** PARTS
**
*Part, name=base
*Node
      1,           0.,           5.,        -12.5
      2,           0.,           0.,        -12.5
      3,           5.,           0.,        -12.5
      4,           0.,           0.,        -37.5
      5,           0.,           5.,        -37.5
      6,           5.,           0.,        -37.5
      7,           5.,         -80.,        -12.5
      8,           5.,         -80.,        -37.5
      9,          -5.,         -80.,        -12.5
     10,          -5.,         -80.,        -37.5
     11,          -5.,           0.,        -37.5
     12,          -5.,           0.,        -12.5
     13,   3.53553391,   3.53553391,        -12.5
     14,           0.,          2.5,        -12.5
     15,           0.,           5.,        -32.5
     16,           0.,           5.,        -27.5
     17,           0.,           5.,        -22.5
     18,           0.,           5.,        -17.5
     19,          2.5,           0.,        -12.5
     20,           0.,           0.,        -17.5
** ... 526 like lines cut
*Element, type=C3D8R
 1, 118,  18, 114, 360,  13,   1,  14, 113
 2, 119,  17, 115, 359, 118,  18, 114, 360
 3, 114,  20, 122, 360,  14,   2,  19, 113
 4, 115,  21, 123, 359, 114,  20, 122, 360
 5, 122,  24, 118, 360,  19,   3,  13, 113
 6, 123,  25, 119, 359, 122,  24, 118, 360
 7, 126,  29, 124, 361,  28,   4,  23, 116
 8, 361, 124, 125, 362, 116,  23,  22, 117
 9, 362, 125, 123, 359, 117,  22,  21, 115
10, 119, 120, 362, 359,  17,  16, 117, 115
11, 120, 121, 361, 362,  16,  15, 116, 117
12, 121,  30, 126, 361,  15,   5,  28, 116
13, 121,  27, 124, 361,  30,   6,  29, 126
14, 120,  26, 125, 362, 121,  27, 124, 361
15, 119,  25, 123, 359, 120,  26, 125, 362
 16,  19, 263, 363, 122,   3,  31, 127,  24
 17, 263, 264, 364, 363,  31,  32, 128, 127
 18, 264, 265, 365, 364,  32,  33, 129, 128
 19, 265, 266, 366, 365,  33,  34, 130, 129
 20, 266, 267, 367, 366,  34,  35, 131, 130
** ... 330 like lines cut
*Nset, nset=_PickedSet5, internal, generate
   1,  546,    1
*Elset, elset=_PickedSet5, internal, generate
   1,  350,    1
** Section: Section-3
*Solid Section, elset=_PickedSet5, material=ot
,
*End Part
**  
*Part, name=indenter
*Node
      1,           0.,        -12.5,         37.5
      2,           0.,           0.,         37.5
      3,        -12.5,           0.,         37.5
      4,           0.,        -12.5,        -37.5
      5,           0.,           0.,        -37.5
      6,        -12.5,           0.,        -37.5
      7,         12.5,           0.,         37.5
      8,         12.5,           0.,        -37.5
      9,  -10.8253174,        -6.25,         37.5
     10,        -6.25,  -10.8253174,         37.5
     11,           0.,  -8.33333302,         37.5
     12,           0.,  -4.16666651,         37.5
     13,           0.,        -12.5,          30.
     14,           0.,        -12.5,         22.5
     15,           0.,        -12.5,          15.
     16,           0.,        -12.5,          7.5
     17,           0.,        -12.5,           0.
     18,           0.,        -12.5,         -7.5
     19,           0.,        -12.5,         -15.
     20,           0.,        -12.5,        -22.5
** ... 156 like lines cut
*Element, type=C3D8R
 1,  81,  13,  63, 145,  10,   1,  11,  61
 2,  82,  14,  64, 144,  81,  13,  63, 145
 3,  83,  15,  65, 143,  82,  14,  64, 144
 4,  84,  16,  66, 142,  83,  15,  65, 143
 5,  85,  17,  67, 141,  84,  16,  66, 142
 6,  63,  68, 151, 145,  11,  12,  62,  61
 7,  68,  23,  99, 151,  12,   2,  22,  62
 8,  64,  69, 152, 144,  63,  68, 151, 145
 9,  69,  24, 100, 152,  68,  23,  99, 151
10,  65,  70, 153, 143,  64,  69, 152, 144
11,  70,  25, 101, 153,  69,  24, 100, 152
12,  66,  71, 154, 142,  65,  70, 153, 143
13,  71,  26, 102, 154,  70,  25, 101, 153
14,  67,  72, 146, 141,  66,  71, 154, 142
15,  72,  27, 103, 146,  71,  26, 102, 154
16,  99,  32,  86, 151,  22,   3,   9,  62
17, 151,  86,  81, 145,  62,   9,  10,  61
18, 100,  33,  87, 152,  99,  32,  86, 151
19, 152,  87,  82, 144, 151,  86,  81, 145
20, 101,  34,  88, 153, 100,  33,  87, 152
** ... 80 like lines cut
*Nset, nset=_PickedSet3, internal, generate
   1,  176,    1
*Elset, elset=_PickedSet3, internal, generate
   1,  100,    1
** Section: Section-3
*Solid Section, elset=_PickedSet3, material=ot
,
*End Part
**  
*Part, name=scale
*Node
      1,           5.,         -21.,           1.
      2,           5.,         -11.,           1.
      3,         -20.,         -11.,           1.
      4,         -20.,         -21.,           1.
      5,           5.,         -11.,           0.
      6,         -20.,         -11.,           0.
      7,         -20.,         -21.,           0.
      8,           5.,         -21.,           0.
      9,           5.,          15.,           0.
     10,         -20.,          15.,           0.
     11,         -20.,          15.,           1.
     12,           5.,          15.,           1.
     13,           5.,       -19.75,           1.
     14,           5.,        -18.5,           1.
     15,           5.,       -17.25,           1.
     16,           5.,         -16.,           1.
     17,           5.,       -14.75,           1.
     18,           5.,        -13.5,           1.
     19,           5.,       -12.25,           1.
     20,   3.68421054,         -11.,           1.
** ... 1140 like lines cut
*Element, type=C3D8R
  1,   8,  69, 351,  95,   1,  13, 225,  62
  2,  69,  68, 352, 351,  13,  14, 226, 225
  3,  68,  67, 353, 352,  14,  15, 227, 226
  4,  67,  66, 354, 353,  15,  16, 228, 227
  5,  66,  65, 355, 354,  16,  17, 229, 228
  6,  65,  64, 356, 355,  17,  18, 230, 229
  7,  64,  63, 357, 356,  18,  19, 231, 230
  8,  63,   5,  87, 357,  19,   2,  20, 231
  9,  95, 351, 358,  96,  62, 225, 232,  61
 10, 351, 352, 359, 358, 225, 226, 233, 232
 11, 352, 353, 360, 359, 226, 227, 234, 233
 12, 353, 354, 361, 360, 227, 228, 235, 234
 13, 354, 355, 362, 361, 228, 229, 236, 235
 14, 355, 356, 363, 362, 229, 230, 237, 236
 15, 356, 357, 364, 363, 230, 231, 238, 237
 16, 357,  87,  86, 364, 231,  20,  21, 238
 17,  96, 358, 365,  97,  61, 232, 239,  60
 18, 358, 359, 366, 365, 232, 233, 240, 239
 19, 359, 360, 367, 366, 233, 234, 241, 240
 20, 360, 361, 368, 367, 234, 235, 242, 241
** ... 512 like lines cut
*Nset, nset=_PickedSet7, internal, generate
    1,  1160,     1
*Elset, elset=_PickedSet7, internal, generate
   1,  532,    1
** Section: Section-2
*Solid Section, elset=_PickedSet7, material=scale
,
*End Part
**  
*Part, name=substrate
*Node
      1,         190.,         17.5,           0.
      2,         190.,         17.5,         12.5
      3,         200.,         17.5,         12.5
      4,         200.,         17.5,           0.
      5,         190.,         -7.5,         12.5
      6,         200.,         -7.5,         12.5
      7,         200.,         -7.5,           0.
      8,         190.,         -7.5,           0.
      9,          30.,         17.5,         12.5
     10,          30.,         -7.5,         12.5
     11,          30.,         -7.5,           0.
     12,          30.,         17.5,           0.
     13,          10.,         17.5,         12.5
     14,          10.,         -7.5,         12.5
     15,          10.,         17.5,           0.
     16,          10.,         -7.5,           0.
     17,           0.,         -7.5,         12.5
     18,           0.,         17.5,         12.5
     19,           0.,         17.5,           0.
     20,           0.,         -7.5,           0.
** ... 964 like lines cut
*Element, type=C3D8R
 1,  40, 237, 697, 229,   1,  21, 225,  26
 2, 237, 238, 698, 697,  21,  22, 226, 225
 3, 238,  45, 233, 698,  22,   2,  23, 226
 4, 229, 697, 245,  33,  26, 225,  25,   4
 5, 697, 698, 246, 245, 225, 226,  24,  25
 6, 698, 233,  44, 246, 226,  23,   3,  24
 7,  39, 239, 699, 230,  40, 237, 697, 229
 8, 239, 240, 700, 699, 237, 238, 698, 697
 9, 240,  46, 234, 700, 238,  45, 233, 698
10, 230, 699, 247,  34, 229, 697, 245,  33
11, 699, 700, 248, 247, 697, 698, 246, 245
12, 700, 234,  43, 248, 698, 233,  44, 246
13,  38, 241, 701, 231,  39, 239, 699, 230
14, 241, 242, 702, 701, 239, 240, 700, 699
15, 242,  47, 235, 702, 240,  46, 234, 700
16, 231, 701, 249,  35, 230, 699, 247,  34
17, 701, 702, 250, 249, 699, 700, 248, 247
18, 702, 235,  42, 250, 700, 234,  43, 248
19,  37, 243, 703, 232,  38, 241, 701, 231
20, 243, 244, 704, 703, 241, 242, 702, 701
** ... 580 like lines cut
*Nset, nset=_PickedSet4, internal, generate
   1,  984,    1
*Elset, elset=_PickedSet4, internal, generate
   1,  600,    1
** Section: Section-1
*Solid Section, elset=_PickedSet4, material=sub
,
*End Part
**  
**
** ASSEMBLY
**
*Assembly, name=Assembly
**  
*Instance, name=substrate-1, part=substrate
37.1006521134559, -14.214834556201,          20.
37.1006521134559, -14.214834556201,          20., 38.1006521261439, -14.214834556201,          20., 89.9999992730282
*End Instance
**  
*Instance, name=scale-1, part=scale
78.7460836430918, -13.2895130723298, 40.7446411622366
78.7460836430918, -13.2895130723298, 40.7446411622366, 79.0332002039234, -12.5557224102016, 41.3603646218786, 217.779040458577
*End Instance
**  
*Instance, name=scale-1-lin-2-1, part=scale
88.7460836430918, -13.2895130723298, 40.7446411622366
88.7460836430918, -13.2895130723298, 40.7446411622366, 89.0332002039234, -12.5557224102016, 41.3603646218786, 217.779040458577
*End Instance
**  
*Instance, name=scale-1-lin-3-1, part=scale
98.7460836430918, -13.2895130723298, 40.7446411622366
98.7460836430918, -13.2895130723298, 40.7446411622366, 99.0332002039234, -12.5557224102016, 41.3603646218786, 217.779040458577
*End Instance
**  
*Instance, name=scale-1-lin-4-1, part=scale
108.746083643092, -13.2895130723298, 40.7446411622366
108.746083643092, -13.2895130723298, 40.7446411622366, 109.033200203923, -12.5557224102016, 41.3603646218786, 217.779040458577
*End Instance
**  
*Instance, name=scale-1-lin-5-1, part=scale
118.746083643092, -13.2895130723298, 40.7446411622366
118.746083643092, -13.2895130723298, 40.7446411622366, 119.033200203923, -12.5557224102016, 41.3603646218786, 217.779040458577
*End Instance
**  
*Instance, name=scale-1-lin-6-1, part=scale
128.746083643092, -13.2895130723298, 40.7446411622366
128.746083643092, -13.2895130723298, 40.7446411622366, 129.033200203923, -12.5557224102016, 41.3603646218786, 217.779040458577
*End Instance
**  
*Instance, name=scale-1-lin-7-1, part=scale
138.746083643092, -13.2895130723298, 40.7446411622366
138.746083643092, -13.2895130723298, 40.7446411622366, 139.033200203923, -12.5557224102016, 41.3603646218786, 217.779040458577
*End Instance
**  
*Instance, name=scale-1-lin-8-1, part=scale
148.746083643092, -13.2895130723298, 40.7446411622366
148.746083643092, -13.2895130723298, 40.7446411622366, 149.033200203923, -12.5557224102016, 41.3603646218786, 217.779040458577
*End Instance
**  
*Instance, name=scale-1-lin-9-1, part=scale
158.746083643092, -13.2895130723298, 40.7446411622366
158.746083643092, -13.2895130723298, 40.7446411622366, 159.033200203923, -12.5557224102016, 41.3603646218786, 217.779040458577
*End Instance
**  
*Instance, name=scale-1-lin-10-1, part=scale
168.746083643092, -13.2895130723298, 40.7446411622366
168.746083643092, -13.2895130723298, 40.7446411622366, 169.033200203923, -12.5557224102016, 41.3603646218786, 217.779040458577
*End Instance
**  
*Instance, name=scale-1-lin-11-1, part=scale
178.746083643092, -13.2895130723298, 40.7446411622366
178.746083643092, -13.2895130723298, 40.7446411622366, 179.033200203923, -12.5557224102016, 41.3603646218786, 217.779040458577
*End Instance
**  
*Instance, name=scale-1-lin-12-1, part=scale
188.746083643092, -13.2895130723298, 40.7446411622366
188.746083643092, -13.2895130723298, 40.7446411622366, 189.033200203923, -12.5557224102016, 41.3603646218786, 217.779040458577
*End Instance
**  
*Instance, name=scale-1-lin-13-1, part=scale
198.746083643092, -13.2895130723298, 40.7446411622366
198.746083643092, -13.2895130723298, 40.7446411622366, 199.033200203923, -12.5557224102016, 41.3603646218786, 217.779040458577
*End Instance
**  
*Instance, name=scale-1-lin-14-1, part=scale
208.746083643092, -13.2895130723298, 40.7446411622366
208.746083643092, -13.2895130723298, 40.7446411622366, 209.033200203923, -12.5557224102016, 41.3603646218786, 217.779040458577
*End Instance
**  
*Instance, name=base-1, part=base
   47.100652,   -31.714835,          50.
*End Instance
**  
*Instance, name=base-2, part=base
  227.100652,   -31.714835,          50.
*End Instance
**  
*Instance, name=indenter-1, part=indenter
  142.784911,     2.800017,    34.807467
*End Instance
**  
*Node
      1,   142.784912,   2.80001712,   34.8074684
*Node
      2,   47.1006508,  -26.7148342,         37.5
*Node
      3,   227.100647,  -26.7148342,         37.5
*Nset, nset=_PickedSet49, internal
 3,
*Nset, nset=_PickedSet50, internal, instance=base-2
   1,   3,   5,   6,  11,  12,  13,  15,  16,  17,  18,  24,  25,  26,  27,  30
  99, 100, 101, 102, 111, 112, 118, 119, 120, 121, 354, 355, 356, 357
*Elset, elset=_PickedSet50, internal, instance=base-2
   1,   2,   5,   6,  10,  11,  12,  13,  14,  15, 338, 339, 340, 341, 345, 346
 347, 348, 349, 350
*Nset, nset=_PickedSet51, internal
 2,
*Nset, nset=_PickedSet52, internal, instance=base-1
   1,   3,   5,   6,  11,  12,  13,  15,  16,  17,  18,  24,  25,  26,  27,  30
  99, 100, 101, 102, 111, 112, 118, 119, 120, 121, 354, 355, 356, 357
*Elset, elset=_PickedSet52, internal, instance=base-1
   1,   2,   5,   6,  10,  11,  12,  13,  14,  15, 338, 339, 340, 341, 345, 346
 347, 348, 349, 350
*Nset, nset=_PickedSet53, internal
 1,
*Nset, nset=_PickedSet54, internal, instance=indenter-1
   2,   3,   5,   6,   7,   8,  22,  23,  24,  25,  26,  27,  28,  29,  30,  31
  32,  33,  34,  35,  36,  37,  38,  39,  40,  45,  46,  49,  50,  51,  52,  53
  54,  55,  56,  57,  60,  99, 100, 101, 102, 103, 104, 105, 106, 107, 112, 113
 114, 115, 116, 117, 118, 119, 120
*Elset, elset=_PickedSet54, internal, instance=indenter-1
   7,   9,  11,  13,  15,  16,  18,  20,  22,  24,  32,  34,  36,  38,  40,  41
  42,  43,  44,  45,  51,  53,  55,  57,  59,  67,  69,  71,  73,  75,  81,  82
  83,  84,  85,  92,  94,  96,  98, 100
*Nset, nset=_PickedSet55, internal
 1,
*Nset, nset=_PickedSet56, internal, instance=base-1
   7,   8,   9,  10,  46,  47,  48,  49,  80,  81,  82,  83, 105, 106, 107, 108
 109, 110, 251, 252, 253, 254, 255, 256, 257, 258, 259, 260, 261, 262
*Elset, elset=_PickedSet56, internal, instance=base-1, generate
  31,  335,   16
*Nset, nset=_PickedSet57, internal, instance=base-2
   7,   8,   9,  10,  46,  47,  48,  49,  80,  81,  82,  83, 105, 106, 107, 108
 109, 110, 251, 252, 253, 254, 255, 256, 257, 258, 259, 260, 261, 262
*Elset, elset=_PickedSet57, internal, instance=base-2, generate
  31,  335,   16
*Nset, nset=_PickedSet58, internal, instance=indenter-1
  1,  3,  4,  6,  9, 10, 13, 14, 15, 16, 17, 18, 19, 20, 21, 32
 33, 34, 35, 36, 37, 38, 39, 40, 43, 44, 81, 82, 83, 84, 85, 86
 87, 88, 89, 90, 91, 92, 93, 94, 95, 96, 97, 98
*Elset, elset=_PickedSet58, internal, instance=indenter-1
  1,  2,  3,  4,  5, 16, 17, 18, 19, 20, 21, 22, 23, 24, 25, 26
 27, 28, 29, 30, 41, 42, 43, 44, 45, 46, 47, 48, 49, 50
*Elset, elset=__PickedSurf44_S4, internal, instance=indenter-1
 16, 17, 18, 19, 20, 21, 22, 23, 24, 25, 61, 62, 63, 64, 65, 76
 77, 78, 79, 80
*Elset, elset=__PickedSurf44_S3, internal, instance=indenter-1
  1,  2,  3,  4,  5, 26, 27, 28, 29, 30, 66, 67, 68, 69, 70, 71
 72, 73, 74, 75
*Elset, elset=__PickedSurf44_S2, internal, instance=indenter-1
  41,  42,  43,  44,  45,  46,  47,  48,  49,  50,  91,  92,  93,  94,  95,  96
  97,  98,  99, 100
*Surface, type=ELEMENT, name=_PickedSurf44, internal
__PickedSurf44_S4, S4
__PickedSurf44_S3, S3
__PickedSurf44_S2, S2
*Elset, elset=__PickedSurf45_S1, internal, instance=substrate-1, generate
 351,  510,    1
*Surface, type=ELEMENT, name=_PickedSurf45, internal
__PickedSurf45_S1, S1
*Elset, elset=__PickedSurf119_S3, internal, instance=scale-1
   1,   2,   3,   4,   5,   6,   7,   8, 153, 154, 155, 156, 157, 158, 159, 160
 161, 162, 163, 164, 165, 166, 167, 168, 169, 170, 171, 172
*Elset, elset=__PickedSurf119_S3, internal, instance=scale-1-lin-2-1
   1,   2,   3,   4,   5,   6,   7,   8, 153, 154, 155, 156, 157, 158, 159, 160
 161, 162, 163, 164, 165, 166, 167, 168, 169, 170, 171, 172
*Elset, elset=__PickedSurf119_S3, internal, instance=scale-1-lin-4-1
   1,   2,   3,   4,   5,   6,   7,   8, 153, 154, 155, 156, 157, 158, 159, 160
 161, 162, 163, 164, 165, 166, 167, 168, 169, 170, 171, 172
*Elset, elset=__PickedSurf119_S3, internal, instance=scale-1-lin-8-1
   1,   2,   3,   4,   5,   6,   7,   8, 153, 154, 155, 156, 157, 158, 159, 160
 161, 162, 163, 164, 165, 166, 167, 168, 169, 170, 171, 172
*Elset, elset=__PickedSurf119_S3, internal, instance=scale-1-lin-12-1
   1,   2,   3,   4,   5,   6,   7,   8, 153, 154, 155, 156, 157, 158, 159, 160
 161, 162, 163, 164, 165, 166, 167, 168, 169, 170, 171, 172
*Elset, elset=__PickedSurf119_S3, internal, instance=scale-1-lin-6-1
   1,   2,   3,   4,   5,   6,   7,   8, 153, 154, 155, 156, 157, 158, 159, 160
 161, 162, 163, 164, 165, 166, 167, 168, 169, 170, 171, 172
*Elset, elset=__PickedSurf119_S3, internal, instance=scale-1-lin-14-1
   1,   2,   3,   4,   5,   6,   7,   8, 153, 154, 155, 156, 157, 158, 159, 160
 161, 162, 163, 164, 165, 166, 167, 168, 169, 170, 171, 172
*Elset, elset=__PickedSurf119_S3, internal, instance=scale-1-lin-10-1
   1,   2,   3,   4,   5,   6,   7,   8, 153, 154, 155, 156, 157, 158, 159, 160
 161, 162, 163, 164, 165, 166, 167, 168, 169, 170, 171, 172
*Elset, elset=__PickedSurf119_S3, internal, instance=scale-1-lin-3-1
   1,   2,   3,   4,   5,   6,   7,   8, 153, 154, 155, 156, 157, 158, 159, 160
 161, 162, 163, 164, 165, 166, 167, 168, 169, 170, 171, 172
*Elset, elset=__PickedSurf119_S3, internal, instance=scale-1-lin-5-1
   1,   2,   3,   4,   5,   6,   7,   8, 153, 154, 155, 156, 157, 158, 159, 160
 161, 162, 163, 164, 165, 166, 167, 168, 169, 170, 171, 172
*Elset, elset=__PickedSurf119_S3, internal, instance=scale-1-lin-13-1
   1,   2,   3,   4,   5,   6,   7,   8, 153, 154, 155, 156, 157, 158, 159, 160
 161, 162, 163, 164, 165, 166, 167, 168, 169, 170, 171, 172
*Elset, elset=__PickedSurf119_S3, internal, instance=scale-1-lin-9-1
   1,   2,   3,   4,   5,   6,   7,   8, 153, 154, 155, 156, 157, 158, 159, 160
 161, 162, 163, 164, 165, 166, 167, 168, 169, 170, 171, 172
*Elset, elset=__PickedSurf119_S3, internal, instance=scale-1-lin-7-1
   1,   2,   3,   4,   5,   6,   7,   8, 153, 154, 155, 156, 157, 158, 159, 160
 161, 162, 163, 164, 165, 166, 167, 168, 169, 170, 171, 172
*Elset, elset=__PickedSurf119_S3, internal, instance=scale-1-lin-11-1
   1,   2,   3,   4,   5,   6,   7,   8, 153, 154, 155, 156, 157, 158, 159, 160
 161, 162, 163, 164, 165, 166, 167, 168, 169, 170, 171, 172
*Elset, elset=__PickedSurf119_S6, internal, instance=scale-1
   1,   9,  17,  25,  33,  41,  49,  57,  65,  73,  81,  89,  97, 105, 113, 121
 129, 137, 145, 153, 173, 193, 213, 233, 253, 273, 293, 313, 333, 353, 373, 393
 413, 433, 453, 473, 493, 513
*Elset, elset=__PickedSurf119_S6, internal, instance=scale-1-lin-2-1
   1,   9,  17,  25,  33,  41,  49,  57,  65,  73,  81,  89,  97, 105, 113, 121
 129, 137, 145, 153, 173, 193, 213, 233, 253, 273, 293, 313, 333, 353, 373, 393
 413, 433, 453, 473, 493, 513
*Elset, elset=__PickedSurf119_S6, internal, instance=scale-1-lin-4-1
   1,   9,  17,  25,  33,  41,  49,  57,  65,  73,  81,  89,  97, 105, 113, 121
 129, 137, 145, 153, 173, 193, 213, 233, 253, 273, 293, 313, 333, 353, 373, 393
 413, 433, 453, 473, 493, 513
*Elset, elset=__PickedSurf119_S6, internal, instance=scale-1-lin-8-1
   1,   9,  17,  25,  33,  41,  49,  57,  65,  73,  81,  89,  97, 105, 113, 121
 129, 137, 145, 153, 173, 193, 213, 233, 253, 273, 293, 313, 333, 353, 373, 393
 413, 433, 453, 473, 493, 513
*Elset, elset=__PickedSurf119_S6, internal, instance=scale-1-lin-12-1
   1,   9,  17,  25,  33,  41,  49,  57,  65,  73,  81,  89,  97, 105, 113, 121
 129, 137, 145, 153, 173, 193, 213, 233, 253, 273, 293, 313, 333, 353, 373, 393
 413, 433, 453, 473, 493, 513
*Elset, elset=__PickedSurf119_S6, internal, instance=scale-1-lin-6-1
   1,   9,  17,  25,  33,  41,  49,  57,  65,  73,  81,  89,  97, 105, 113, 121
 129, 137, 145, 153, 173, 193, 213, 233, 253, 273, 293, 313, 333, 353, 373, 393
 413, 433, 453, 473, 493, 513
*Elset, elset=__PickedSurf119_S6, internal, instance=scale-1-lin-14-1
   1,   9,  17,  25,  33,  41,  49,  57,  65,  73,  81,  89,  97, 105, 113, 121
 129, 137, 145, 153, 173, 193, 213, 233, 253, 273, 293, 313, 333, 353, 373, 393
 413, 433, 453, 473, 493, 513
*Elset, elset=__PickedSurf119_S6, internal, instance=scale-1-lin-10-1
   1,   9,  17,  25,  33,  41,  49,  57,  65,  73,  81,  89,  97, 105, 113, 121
 129, 137, 145, 153, 173, 193, 213, 233, 253, 273, 293, 313, 333, 353, 373, 393
 413, 433, 453, 473, 493, 513
*Elset, elset=__PickedSurf119_S6, internal, instance=scale-1-lin-3-1
   1,   9,  17,  25,  33,  41,  49,  57,  65,  73,  81,  89,  97, 105, 113, 121
 129, 137, 145, 153, 173, 193, 213, 233, 253, 273, 293, 313, 333, 353, 373, 393
 413, 433, 453, 473, 493, 513
*Elset, elset=__PickedSurf119_S6, internal, instance=scale-1-lin-5-1
   1,   9,  17,  25,  33,  41,  49,  57,  65,  73,  81,  89,  97, 105, 113, 121
 129, 137, 145, 153, 173, 193, 213, 233, 253, 273, 293, 313, 333, 353, 373, 393
 413, 433, 453, 473, 493, 513
*Elset, elset=__PickedSurf119_S6, internal, instance=scale-1-lin-13-1
   1,   9,  17,  25,  33,  41,  49,  57,  65,  73,  81,  89,  97, 105, 113, 121
 129, 137, 145, 153, 173, 193, 213, 233, 253, 273, 293, 313, 333, 353, 373, 393
 413, 433, 453, 473, 493, 513
*Elset, elset=__PickedSurf119_S6, internal, instance=scale-1-lin-9-1
   1,   9,  17,  25,  33,  41,  49,  57,  65,  73,  81,  89,  97, 105, 113, 121
 129, 137, 145, 153, 173, 193, 213, 233, 253, 273, 293, 313, 333, 353, 373, 393
 413, 433, 453, 473, 493, 513
*Elset, elset=__PickedSurf119_S6, internal, instance=scale-1-lin-7-1
   1,   9,  17,  25,  33,  41,  49,  57,  65,  73,  81,  89,  97, 105, 113, 121
 129, 137, 145, 153, 173, 193, 213, 233, 253, 273, 293, 313, 333, 353, 373, 393
 413, 433, 453, 473, 493, 513
*Elset, elset=__PickedSurf119_S6, internal, instance=scale-1-lin-11-1
   1,   9,  17,  25,  33,  41,  49,  57,  65,  73,  81,  89,  97, 105, 113, 121
 129, 137, 145, 153, 173, 193, 213, 233, 253, 273, 293, 313, 333, 353, 373, 393
 413, 433, 453, 473, 493, 513
*Elset, elset=__PickedSurf119_S2, internal, instance=scale-1, generate
   1,  532,    1
*Elset, elset=__PickedSurf119_S2, internal, instance=scale-1-lin-2-1, generate
   1,  532,    1
*Elset, elset=__PickedSurf119_S2, internal, instance=scale-1-lin-4-1, generate
   1,  532,    1
*Elset, elset=__PickedSurf119_S2, internal, instance=scale-1-lin-8-1, generate
   1,  532,    1
*Elset, elset=__PickedSurf119_S2, internal, instance=scale-1-lin-12-1, generate
   1,  532,    1
*Elset, elset=__PickedSurf119_S2, internal, instance=scale-1-lin-6-1, generate
   1,  532,    1
*Elset, elset=__PickedSurf119_S2, internal, instance=scale-1-lin-14-1, generate
   1,  532,    1
*Elset, elset=__PickedSurf119_S2, internal, instance=scale-1-lin-10-1, generate
   1,  532,    1
*Elset, elset=__PickedSurf119_S2, internal, instance=scale-1-lin-3-1, generate
   1,  532,    1
*Elset, elset=__PickedSurf119_S2, internal, instance=scale-1-lin-5-1, generate
   1,  532,    1
*Elset, elset=__PickedSurf119_S2, internal, instance=scale-1-lin-13-1, generate
   1,  532,    1
*Elset, elset=__PickedSurf119_S2, internal, instance=scale-1-lin-9-1, generate
   1,  532,    1
*Elset, elset=__PickedSurf119_S2, internal, instance=scale-1-lin-7-1, generate
   1,  532,    1
*Elset, elset=__PickedSurf119_S2, internal, instance=scale-1-lin-11-1, generate
   1,  532,    1
*Elset, elset=__PickedSurf119_S1, internal, instance=scale-1, generate
   1,  532,    1
*Elset, elset=__PickedSurf119_S1, internal, instance=scale-1-lin-2-1, generate
   1,  532,    1
*Elset, elset=__PickedSurf119_S1, internal, instance=scale-1-lin-4-1, generate
   1,  532,    1
*Elset, elset=__PickedSurf119_S1, internal, instance=scale-1-lin-8-1, generate
   1,  532,    1
*Elset, elset=__PickedSurf119_S1, internal, instance=scale-1-lin-12-1, generate
   1,  532,    1
*Elset, elset=__PickedSurf119_S1, internal, instance=scale-1-lin-6-1, generate
   1,  532,    1
*Elset, elset=__PickedSurf119_S1, internal, instance=scale-1-lin-14-1, generate
   1,  532,    1
*Elset, elset=__PickedSurf119_S1, internal, instance=scale-1-lin-10-1, generate
   1,  532,    1
*Elset, elset=__PickedSurf119_S1, internal, instance=scale-1-lin-3-1, generate
   1,  532,    1
*Elset, elset=__PickedSurf119_S1, internal, instance=scale-1-lin-5-1, generate
   1,  532,    1
*Elset, elset=__PickedSurf119_S1, internal, instance=scale-1-lin-13-1, generate
   1,  532,    1
*Elset, elset=__PickedSurf119_S1, internal, instance=scale-1-lin-9-1, generate
   1,  532,    1
*Elset, elset=__PickedSurf119_S1, internal, instance=scale-1-lin-7-1, generate
   1,  532,    1
*Elset, elset=__PickedSurf119_S1, internal, instance=scale-1-lin-11-1, generate
   1,  532,    1
*Elset, elset=__PickedSurf119_S5, internal, instance=scale-1
 145, 146, 147, 148, 149, 150, 151, 152, 513, 514, 515, 516, 517, 518, 519, 520
 521, 522, 523, 524, 525, 526, 527, 528, 529, 530, 531, 532
*Elset, elset=__PickedSurf119_S5, internal, instance=scale-1-lin-2-1
 145, 146, 147, 148, 149, 150, 151, 152, 513, 514, 515, 516, 517, 518, 519, 520
 521, 522, 523, 524, 525, 526, 527, 528, 529, 530, 531, 532
*Elset, elset=__PickedSurf119_S5, internal, instance=scale-1-lin-4-1
 145, 146, 147, 148, 149, 150, 151, 152, 513, 514, 515, 516, 517, 518, 519, 520
 521, 522, 523, 524, 525, 526, 527, 528, 529, 530, 531, 532
*Elset, elset=__PickedSurf119_S5, internal, instance=scale-1-lin-8-1
 145, 146, 147, 148, 149, 150, 151, 152, 513, 514, 515, 516, 517, 518, 519, 520
 521, 522, 523, 524, 525, 526, 527, 528, 529, 530, 531, 532
*Elset, elset=__PickedSurf119_S5, internal, instance=scale-1-lin-12-1
 145, 146, 147, 148, 149, 150, 151, 152, 513, 514, 515, 516, 517, 518, 519, 520
 521, 522, 523, 524, 525, 526, 527, 528, 529, 530, 531, 532
*Elset, elset=__PickedSurf119_S5, internal, instance=scale-1-lin-6-1
 145, 146, 147, 148, 149, 150, 151, 152, 513, 514, 515, 516, 517, 518, 519, 520
 521, 522, 523, 524, 525, 526, 527, 528, 529, 530, 531, 532
*Elset, elset=__PickedSurf119_S5, internal, instance=scale-1-lin-14-1
 145, 146, 147, 148, 149, 150, 151, 152, 513, 514, 515, 516, 517, 518, 519, 520
 521, 522, 523, 524, 525, 526, 527, 528, 529, 530, 531, 532
*Elset, elset=__PickedSurf119_S5, internal, instance=scale-1-lin-10-1
 145, 146, 147, 148, 149, 150, 151, 152, 513, 514, 515, 516, 517, 518, 519, 520
 521, 522, 523, 524, 525, 526, 527, 528, 529, 530, 531, 532
*Elset, elset=__PickedSurf119_S5, internal, instance=scale-1-lin-3-1
 145, 146, 147, 148, 149, 150, 151, 152, 513, 514, 515, 516, 517, 518, 519, 520
 521, 522, 523, 524, 525, 526, 527, 528, 529, 530, 531, 532
*Elset, elset=__PickedSurf119_S5, internal, instance=scale-1-lin-5-1
 145, 146, 147, 148, 149, 150, 151, 152, 513, 514, 515, 516, 517, 518, 519, 520
 521, 522, 523, 524, 525, 526, 527, 528, 529, 530, 531, 532
*Elset, elset=__PickedSurf119_S5, internal, instance=scale-1-lin-13-1
 145, 146, 147, 148, 149, 150, 151, 152, 513, 514, 515, 516, 517, 518, 519, 520
 521, 522, 523, 524, 525, 526, 527, 528, 529, 530, 531, 532
*Elset, elset=__PickedSurf119_S5, internal, instance=scale-1-lin-9-1
 145, 146, 147, 148, 149, 150, 151, 152, 513, 514, 515, 516, 517, 518, 519, 520
 521, 522, 523, 524, 525, 526, 527, 528, 529, 530, 531, 532
*Elset, elset=__PickedSurf119_S5, internal, instance=scale-1-lin-7-1
 145, 146, 147, 148, 149, 150, 151, 152, 513, 514, 515, 516, 517, 518, 519, 520
 521, 522, 523, 524, 525, 526, 527, 528, 529, 530, 531, 532
*Elset, elset=__PickedSurf119_S5, internal, instance=scale-1-lin-11-1
 145, 146, 147, 148, 149, 150, 151, 152, 513, 514, 515, 516, 517, 518, 519, 520
 521, 522, 523, 524, 525, 526, 527, 528, 529, 530, 531, 532
*Surface, type=ELEMENT, name=_PickedSurf119, internal
__PickedSurf119_S3, S3
__PickedSurf119_S6, S6
__PickedSurf119_S2, S2
__PickedSurf119_S1, S1
__PickedSurf119_S5, S5
*Elset, elset=__PickedSurf126_S3, internal, instance=scale-1, generate
 153,  172,    1
*Elset, elset=__PickedSurf126_S3, internal, instance=scale-1-lin-2-1, generate
 153,  172,    1
*Elset, elset=__PickedSurf126_S3, internal, instance=scale-1-lin-4-1, generate
 153,  172,    1
*Elset, elset=__PickedSurf126_S3, internal, instance=scale-1-lin-8-1, generate
 153,  172,    1
*Elset, elset=__PickedSurf126_S3, internal, instance=scale-1-lin-12-1, generate
 153,  172,    1
*Elset, elset=__PickedSurf126_S3, internal, instance=scale-1-lin-6-1, generate
 153,  172,    1
*Elset, elset=__PickedSurf126_S3, internal, instance=scale-1-lin-14-1, generate
 153,  172,    1
*Elset, elset=__PickedSurf126_S3, internal, instance=scale-1-lin-10-1, generate
 153,  172,    1
*Elset, elset=__PickedSurf126_S3, internal, instance=scale-1-lin-3-1, generate
 153,  172,    1
*Elset, elset=__PickedSurf126_S3, internal, instance=scale-1-lin-5-1, generate
 153,  172,    1
*Elset, elset=__PickedSurf126_S3, internal, instance=scale-1-lin-13-1, generate
 153,  172,    1
*Elset, elset=__PickedSurf126_S3, internal, instance=scale-1-lin-9-1, generate
 153,  172,    1
*Elset, elset=__PickedSurf126_S3, internal, instance=scale-1-lin-7-1, generate
 153,  172,    1
*Elset, elset=__PickedSurf126_S3, internal, instance=scale-1-lin-11-1, generate
 153,  172,    1
*Elset, elset=__PickedSurf126_S1, internal, instance=scale-1, generate
 153,  532,    1
*Elset, elset=__PickedSurf126_S1, internal, instance=scale-1-lin-2-1, generate
 153,  532,    1
*Elset, elset=__PickedSurf126_S1, internal, instance=scale-1-lin-4-1, generate
 153,  532,    1
*Elset, elset=__PickedSurf126_S1, internal, instance=scale-1-lin-8-1, generate
 153,  532,    1
*Elset, elset=__PickedSurf126_S1, internal, instance=scale-1-lin-12-1, generate
 153,  532,    1
*Elset, elset=__PickedSurf126_S1, internal, instance=scale-1-lin-6-1, generate
 153,  532,    1
*Elset, elset=__PickedSurf126_S1, internal, instance=scale-1-lin-14-1, generate
 153,  532,    1
*Elset, elset=__PickedSurf126_S1, internal, instance=scale-1-lin-10-1, generate
 153,  532,    1
*Elset, elset=__PickedSurf126_S1, internal, instance=scale-1-lin-3-1, generate
 153,  532,    1
*Elset, elset=__PickedSurf126_S1, internal, instance=scale-1-lin-5-1, generate
 153,  532,    1
*Elset, elset=__PickedSurf126_S1, internal, instance=scale-1-lin-13-1, generate
 153,  532,    1
*Elset, elset=__PickedSurf126_S1, internal, instance=scale-1-lin-9-1, generate
 153,  532,    1
*Elset, elset=__PickedSurf126_S1, internal, instance=scale-1-lin-7-1, generate
 153,  532,    1
*Elset, elset=__PickedSurf126_S1, internal, instance=scale-1-lin-11-1, generate
 153,  532,    1
*Elset, elset=__PickedSurf126_S6, internal, instance=scale-1, generate
 153,  513,   20
*Elset, elset=__PickedSurf126_S6, internal, instance=scale-1-lin-2-1, generate
 153,  513,   20
*Elset, elset=__PickedSurf126_S6, internal, instance=scale-1-lin-4-1, generate
 153,  513,   20
*Elset, elset=__PickedSurf126_S6, internal, instance=scale-1-lin-8-1, generate
 153,  513,   20
*Elset, elset=__PickedSurf126_S6, internal, instance=scale-1-lin-12-1, generate
 153,  513,   20
*Elset, elset=__PickedSurf126_S6, internal, instance=scale-1-lin-6-1, generate
 153,  513,   20
*Elset, elset=__PickedSurf126_S6, internal, instance=scale-1-lin-14-1, generate
 153,  513,   20
*Elset, elset=__PickedSurf126_S6, internal, instance=scale-1-lin-10-1, generate
 153,  513,   20
*Elset, elset=__PickedSurf126_S6, internal, instance=scale-1-lin-3-1, generate
 153,  513,   20
*Elset, elset=__PickedSurf126_S6, internal, instance=scale-1-lin-5-1, generate
 153,  513,   20
*Elset, elset=__PickedSurf126_S6, internal, instance=scale-1-lin-13-1, generate
 153,  513,   20
*Elset, elset=__PickedSurf126_S6, internal, instance=scale-1-lin-9-1, generate
 153,  513,   20
*Elset, elset=__PickedSurf126_S6, internal, instance=scale-1-lin-7-1, generate
 153,  513,   20
*Elset, elset=__PickedSurf126_S6, internal, instance=scale-1-lin-11-1, generate
 153,  513,   20
*Elset, elset=__PickedSurf126_S2, internal, instance=scale-1, generate
 153,  532,    1
*Elset, elset=__PickedSurf126_S2, internal, instance=scale-1-lin-2-1, generate
 153,  532,    1
*Elset, elset=__PickedSurf126_S2, internal, instance=scale-1-lin-4-1, generate
 153,  532,    1
*Elset, elset=__PickedSurf126_S2, internal, instance=scale-1-lin-8-1, generate
 153,  532,    1
*Elset, elset=__PickedSurf126_S2, internal, instance=scale-1-lin-12-1, generate
 153,  532,    1
*Elset, elset=__PickedSurf126_S2, internal, instance=scale-1-lin-6-1, generate
 153,  532,    1
*Elset, elset=__PickedSurf126_S2, internal, instance=scale-1-lin-14-1, generate
 153,  532,    1
*Elset, elset=__PickedSurf126_S2, internal, instance=scale-1-lin-10-1, generate
 153,  532,    1
*Elset, elset=__PickedSurf126_S2, internal, instance=scale-1-lin-3-1, generate
 153,  532,    1
*Elset, elset=__PickedSurf126_S2, internal, instance=scale-1-lin-5-1, generate
 153,  532,    1
*Elset, elset=__PickedSurf126_S2, internal, instance=scale-1-lin-13-1, generate
 153,  532,    1
*Elset, elset=__PickedSurf126_S2, internal, instance=scale-1-lin-9-1, generate
 153,  532,    1
*Elset, elset=__PickedSurf126_S2, internal, instance=scale-1-lin-7-1, generate
 153,  532,    1
*Elset, elset=__PickedSurf126_S2, internal, instance=scale-1-lin-11-1, generate
 153,  532,    1
*Elset, elset=__PickedSurf126_S5, internal, instance=scale-1, generate
 513,  532,    1
*Elset, elset=__PickedSurf126_S5, internal, instance=scale-1-lin-2-1, generate
 513,  532,    1
*Elset, elset=__PickedSurf126_S5, internal, instance=scale-1-lin-4-1, generate
 513,  532,    1
*Elset, elset=__PickedSurf126_S5, internal, instance=scale-1-lin-8-1, generate
 513,  532,    1
*Elset, elset=__PickedSurf126_S5, internal, instance=scale-1-lin-12-1, generate
 513,  532,    1
*Elset, elset=__PickedSurf126_S5, internal, instance=scale-1-lin-6-1, generate
 513,  532,    1
*Elset, elset=__PickedSurf126_S5, internal, instance=scale-1-lin-14-1, generate
 513,  532,    1
*Elset, elset=__PickedSurf126_S5, internal, instance=scale-1-lin-10-1, generate
 513,  532,    1
*Elset, elset=__PickedSurf126_S5, internal, instance=scale-1-lin-3-1, generate
 513,  532,    1
*Elset, elset=__PickedSurf126_S5, internal, instance=scale-1-lin-5-1, generate
 513,  532,    1
*Elset, elset=__PickedSurf126_S5, internal, instance=scale-1-lin-13-1, generate
 513,  532,    1
*Elset, elset=__PickedSurf126_S5, internal, instance=scale-1-lin-9-1, generate
 513,  532,    1
*Elset, elset=__PickedSurf126_S5, internal, instance=scale-1-lin-7-1, generate
 513,  532,    1
*Elset, elset=__PickedSurf126_S5, internal, instance=scale-1-lin-11-1, generate
 513,  532,    1
*Surface, type=ELEMENT, name=_PickedSurf126, internal
__PickedSurf126_S3, S3
__PickedSurf126_S1, S1
__PickedSurf126_S6, S6
__PickedSurf126_S2, S2
__PickedSurf126_S5, S5
*Elset, elset=__PickedSurf127_S1, internal, instance=substrate-1, generate
 351,  510,    1
*Surface, type=ELEMENT, name=_PickedSurf127, internal
__PickedSurf127_S1, S1
** Constraint: Constraint-1
*Rigid Body, ref node=_PickedSet49, pin nset=_PickedSet50
** Constraint: Constraint-2
*Rigid Body, ref node=_PickedSet51, pin nset=_PickedSet52
** Constraint: Constraint-3
*Rigid Body, ref node=_PickedSet53, pin nset=_PickedSet54
*Elset, elset=__Int-1_gcs0_178_S3, internal, instance=base-1
  1,  2, 10, 11, 12, 13, 14, 15
*Elset, elset=__Int-1_gcs0_178_S4, internal, instance=base-1
 5, 6
*Surface, type=ELEMENT, name=_Int-1_gcs0_178, internal
__Int-1_gcs0_178_S3, S3
__Int-1_gcs0_178_S4, S4
*Elset, elset=__Int-1_gcs0_187_S4, internal, instance=base-1
 338, 339, 345, 346, 347, 348, 349, 350
*Elset, elset=__Int-1_gcs0_187_S3, internal, instance=base-1
 340, 341
*Surface, type=ELEMENT, name=_Int-1_gcs0_187, internal
__Int-1_gcs0_187_S4, S4
__Int-1_gcs0_187_S3, S3
*Elset, elset=__Int-1_gcs0_192_S3, internal, instance=base-2
  1,  2, 10, 11, 12, 13, 14, 15
*Elset, elset=__Int-1_gcs0_192_S4, internal, instance=base-2
 5, 6
*Surface, type=ELEMENT, name=_Int-1_gcs0_192, internal
__Int-1_gcs0_192_S3, S3
__Int-1_gcs0_192_S4, S4
*Elset, elset=__Int-1_gcs0_201_S4, internal, instance=base-2
 338, 339, 345, 346, 347, 348, 349, 350
*Elset, elset=__Int-1_gcs0_201_S3, internal, instance=base-2
 340, 341
*Surface, type=ELEMENT, name=_Int-1_gcs0_201, internal
__Int-1_gcs0_201_S4, S4
__Int-1_gcs0_201_S3, S3
*Elset, elset=__Int-1_gcs0_206_S4, internal, instance=indenter-1
 61, 62, 63, 64, 65, 76, 77, 78, 79, 80
*Elset, elset=__Int-1_gcs0_206_S3, internal, instance=indenter-1, generate
 66,  75,   1
*Elset, elset=__Int-1_gcs0_206_S2, internal, instance=indenter-1, generate
  91,  100,    1
*Surface, type=ELEMENT, name=_Int-1_gcs0_206, internal
__Int-1_gcs0_206_S4, S4
__Int-1_gcs0_206_S3, S3
__Int-1_gcs0_206_S2, S2
*Elset, elset=__Int-1_gcs0_209_S3, internal, instance=indenter-1
  1,  2,  3,  4,  5, 26, 27, 28, 29, 30
*Elset, elset=__Int-1_gcs0_209_S4, internal, instance=indenter-1, generate
 16,  25,   1
*Elset, elset=__Int-1_gcs0_209_S2, internal, instance=indenter-1, generate
 41,  50,   1
*Surface, type=ELEMENT, name=_Int-1_gcs0_209, internal
__Int-1_gcs0_209_S3, S3
__Int-1_gcs0_209_S4, S4
__Int-1_gcs0_209_S2, S2
*End Assembly
*Amplitude, name=Amp-1
             0.,              1.,             60.,              1.
*Amplitude, name=Amp-2
             0.,              0.,             60.,              1.
** 
** MATERIALS
** 
*Material, name=ot
*Elastic
200000., 0.3
*Material, name=scale
*Elastic
2800., 0.3
*Material, name=sub
*Elastic
 1.5, 0.42
** 
** INTERACTION PROPERTIES
** 
*Surface Interaction, name=IntProp-1
1.,
*Friction, slip tolerance=0.005
 0.2,
** 
** BOUNDARY CONDITIONS
** 
** Name: BC-1 Type: Symmetry/Antisymmetry/Encastre
*Boundary
_PickedSet56, ENCASTRE
** Name: BC-2 Type: Symmetry/Antisymmetry/Encastre
*Boundary
_PickedSet57, ENCASTRE
** 
** INTERACTIONS
** 
** Interaction: Int-1
*Contact
*Contact Inclusions, ALL EXTERIOR
*Contact Property Assignment
 ,  , IntProp-1
*Surface Property Assignment, property=GEOMETRIC CORRECTION
_Int-1_gcs0_178, Circumferential, 47.1007, -31.7148, 87.5,  47.1007, -31.7148, 88.5
_Int-1_gcs0_187, Circumferential, 47.1007, -31.7148, 87.5,  47.1007, -31.7148, 88.5
_Int-1_gcs0_192, Circumferential, 227.101, -31.7148, 87.5,  227.101, -31.7148, 88.5
_Int-1_gcs0_201, Circumferential, 227.101, -31.7148, 87.5,  227.101, -31.7148, 88.5
_Int-1_gcs0_206, Circumferential, 142.785, 2.80002, 72.3075,  142.785, 2.80002, 73.3075
_Int-1_gcs0_209, Circumferential, 142.785, 2.80002, 72.3075,  142.785, 2.80002, 73.3075
** Interaction: Int-2
*Contact Pair, interaction=IntProp-1, type=SURFACE TO SURFACE
_PickedSurf45, _PickedSurf44
** Interaction: Int-3
*Contact Pair, interaction=IntProp-1, type=SURFACE TO SURFACE
_PickedSurf119,
** Interaction: Int-4
*Contact Pair, interaction=IntProp-1, type=SURFACE TO SURFACE
_PickedSurf127, _PickedSurf126
** ----------------------------------------------------------------
** 
** STEP: Step-1
** 
*Step, name=Step-1, nlgeom=YES
*Static, stabilize, factor=0.0002, allsdtol=0, continue=NO
0.01, 60., 1e-15, 0.1
** 
** BOUNDARY CONDITIONS
** 
** Name: BC-3 Type: Displacement/Rotation
*Boundary, amplitude=Amp-2
_PickedSet58, 1, 1
_PickedSet58, 2, 2, -30.
_PickedSet58, 3, 3
_PickedSet58, 4, 4
_PickedSet58, 5, 5
_PickedSet58, 6, 6
** 
** LOADS
** 
** Name: Load-1   Type: Concentrated force
*Cload, amplitude=Amp-1
_PickedSet55, 2, -1000.
** 
** CONTROLS
** 
*Controls, reset
*Controls, parameters=time incrementation
8, 10, , , , , , 30, , , 
** 
** OUTPUT REQUESTS
** 
*Restart, write, frequency=0
** 
** FIELD OUTPUT: F-Output-1
** 
*Output, field
*Node Output
CF, RF, U
*Element Output, directions=YES
LE, PE, S, PEEQ
*Output, history, frequency=0
*End Step
